MolPort-009-755-946 LN01071510


 38 38  0  0  0  0  0  0  0  0999 V2000
   -9.1049  -19.8183   -7.7285 C   0  0  0  0  0  0  0  0  0  0  0  0
   -7.8311  -19.5562   -8.2747 C   0  0  0  0  0  0  0  0  0  0  0  0
   -6.7024  -20.0778   -7.5987 C   0  0  0  0  0  0  0  0  0  0  0  0
   -5.5390  -19.8663   -8.0311 O   0  0  0  0  0  0  0  0  0  0  0  0
   -6.8499  -20.7898   -6.4848 O   0  0  0  0  0  0  0  0  0  0  0  0
   -8.0373  -21.0507   -5.9522 C   0  0  0  0  0  0  0  0  0  0  0  0
   -8.1284  -21.8497   -4.7017 C   0  0  0  0  0  0  0  0  0  0  0  0
   -9.1993  -20.5803   -6.5579 C   0  0  0  0  0  0  0  0  0  0  0  0
   -7.6777  -18.7520   -9.5168 C   0  0  0  0  0  0  0  0  0  0  0  0
   -7.7511  -17.2555   -9.4611 C   0  0  0  0  0  0  0  0  0  0  0  0
   -7.4634  -19.3531  -10.6479 N   0  0  0  0  0  0  0  0  0  0  0  0
   -7.2813  -18.6482  -11.8468 N   0  0  0  0  0  0  0  0  0  0  0  0
   -7.9116  -19.0778  -13.0544 C   0  0  0  0  0  0  0  0  0  0  0  0
   -8.6948  -20.0666  -13.0520 O   0  0  0  0  0  0  0  0  0  0  0  0
   -6.7108  -17.8458  -11.8561 H   0  0  0  0  0  0  0  0  0  0  0  0
   -7.6406  -18.3504  -14.3293 C   0  0  0  0  0  0  0  0  0  0  0  0
   -7.8867  -16.8583  -14.1608 C   0  0  0  0  0  0  0  0  0  0  0  0
   -7.5040  -16.1885  -15.3244 O   0  0  0  0  0  0  0  0  0  0  0  0
   -8.0347  -16.5080  -16.0708 H   0  0  0  0  0  0  0  0  0  0  0  0
   -9.3256  -16.5814  -13.8653 C   0  0  0  0  0  0  0  0  0  0  0  0
   -9.6776  -15.9720  -12.6669 O   0  0  0  0  0  0  0  0  0  0  0  0
  -10.2190  -16.8872  -14.6985 O   0  0  0  0  0  0  0  0  0  0  0  0
   -9.0149  -15.7434  -12.0452 H   0  0  0  0  0  0  0  0  0  0  0  0
  -10.2639  -19.3732   -8.3847 O   0  0  0  0  0  0  0  0  0  0  0  0
  -11.4601  -20.0989   -8.4886 C   0  0  0  0  0  0  0  0  0  0  0  0
  -11.5999  -20.8860   -9.4610 O   0  0  0  0  0  0  0  0  0  0  0  0
  -12.5902  -19.8851   -7.5434 C   0  0  0  0  0  0  0  0  0  0  0  0
  -12.8122  -20.7521   -6.5324 C   0  0  0  0  0  0  0  0  0  0  0  0
  -13.9494  -20.5818   -5.5802 C   0  0  0  0  0  0  0  0  0  0  0  0
  -11.9798  -21.8497   -6.3434 O   0  0  0  0  0  0  0  0  0  0  0  0
  -11.2547  -21.9925   -6.9194 H   0  0  0  0  0  0  0  0  0  0  0  0
  -13.4525  -18.6886   -7.7311 C   0  0  0  0  0  0  0  0  0  0  0  0
  -13.3577  -17.7247   -6.9206 O   0  0  0  0  0  0  0  0  0  0  0  0
  -15.8201  -19.1853  -10.7173 C   0  0  0  0  0  0  0  0  0  0  0  0
  -14.9509  -19.5223   -9.5629 C   0  0  0  0  0  0  0  0  0  0  0  0
  -14.7936  -20.8537   -9.1981 O   0  0  0  0  0  0  0  0  0  0  0  0
  -14.3653  -18.5350   -8.8771 C   0  0  0  0  0  0  0  0  0  0  0  0
  -15.2141  -21.5283   -9.6943 H   0  0  0  0  0  0  0  0  0  0  0  0
 34 35  1  0  0  0
 35 36  1  0  0  0
 35 37  2  0  0  0
 37 32  1  0  0  0
 32 33  2  0  0  0
 32 27  1  0  0  0
 27 28  2  0  0  0
 28 29  1  0  0  0
 28 30  1  0  0  0
 27 25  1  0  0  0
 25 26  2  0  0  0
 25 24  1  0  0  0
 24  1  1  0  0  0
  1  2  2  0  0  0
  2  9  1  0  0  0
  9 10  1  0  0  0
  9 11  2  0  0  0
 11 12  1  0  0  0
 12 13  1  0  0  0
 13 14  2  0  0  0
 13 16  1  0  0  0
 16 17  1  0  0  0
 17 18  1  0  0  0
 17 20  1  0  0  0
 20 21  1  0  0  0
 20 22  2  0  0  0
  2  3  1  0  0  0
  3  4  2  0  0  0
  3  5  1  0  0  0
  5  6  1  0  0  0
  6  7  1  0  0  0
  6  8  2  0  0  0
  8  1  1  0  0  0
 36 38  1  0  0  0
 30 31  1  0  0  0
 12 15  1  0  0  0
 18 19  1  0  0  0
 21 23  1  0  0  0
M  END
>  <minimizedAffinity>
-5.37114

>  <minimizedRMSD>
4.84307

$$$$
MolPort-008-345-391 44932693 ZINC44932693


 33 35  0  0  0  0  0  0  0  0999 V2000
   -8.8273  -20.1957   -7.4531 C   0  0  0  0  0  0  0  0  0  0  0  0
   -7.9782  -21.1359   -7.0105 N   0  0  0  0  0  0  0  0  0  0  0  0
   -8.6816  -21.8869   -6.2067 O   0  0  0  0  0  0  0  0  0  0  0  0
   -9.9297  -21.5201   -6.0936 N   0  0  0  0  0  0  0  0  0  0  0  0
  -10.0606  -20.4499   -6.8928 C   0  0  0  0  0  0  0  0  0  0  0  0
   -8.3921  -19.2306   -9.6015 N   0  0  0  0  0  0  0  0  0  0  0  0
   -8.8307  -20.3777  -10.2283 O   0  0  0  0  0  0  0  0  0  0  0  0
   -8.4425  -19.1279   -8.3282 N   0  0  0  0  0  0  0  0  0  0  0  0
  -10.1799  -15.8140  -11.9262 C   0  0  0  0  0  0  0  0  0  0  0  0
   -8.6511  -15.8965  -12.0109 C   0  0  0  0  0  0  0  0  0  0  0  0
   -8.2094  -14.7570  -12.9052 C   0  0  0  0  0  0  0  0  0  0  0  0
   -8.0355  -15.7017  -10.7470 O   0  0  0  0  0  0  0  0  0  0  0  0
   -8.3748  -16.7554   -9.8718 C   0  0  0  0  0  0  0  0  0  0  0  0
   -7.9242  -18.1122  -10.4325 C   0  0  0  0  0  0  0  0  0  0  0  0
   -8.5645  -18.2080  -11.8163 C   0  0  0  0  0  0  0  0  0  0  0  0
   -8.2142  -17.1021  -12.6194 O   0  0  0  0  0  0  0  0  0  0  0  0
   -6.4608  -18.1640  -10.5366 N   0  0  0  0  0  0  0  0  0  0  0  0
   -5.6760  -17.6402   -9.5342 O   0  0  0  0  0  0  0  0  0  0  0  0
   -5.9212  -18.8711  -11.4135 O   0  0  0  0  0  0  0  0  0  0  0  0
  -11.3030  -19.7655   -7.1034 N   0  0  0  0  0  0  0  0  0  0  0  0
  -12.4529  -20.2993   -6.9422 N   0  0  0  0  0  0  0  0  0  0  0  0
  -12.5688  -21.5442   -6.3590 O   0  0  0  0  0  0  0  0  0  0  0  0
  -13.6611  -19.4972   -7.1660 C   0  0  0  0  0  0  0  0  0  0  0  0
  -13.6817  -18.3421   -6.1653 C   0  0  0  0  0  0  0  0  0  0  0  0
  -14.8966  -17.6258   -6.2307 O   0  0  0  0  0  0  0  0  0  0  0  0
  -15.9925  -18.4877   -5.9642 C   0  0  0  0  0  0  0  0  0  0  0  0
  -15.9688  -19.0230   -4.5274 C   0  0  0  0  0  0  0  0  0  0  0  0
  -17.2546  -17.6609   -6.0924 C   0  0  0  0  0  0  0  0  0  0  0  0
  -16.0748  -19.5314   -6.9225 O   0  0  0  0  0  0  0  0  0  0  0  0
  -14.9111  -20.3277   -6.8758 C   0  0  0  0  0  0  0  0  0  0  0  0
  -13.7020  -19.0107   -8.5532 N   0  0  0  0  0  0  0  0  0  0  0  0
  -13.5631  -17.6710   -8.8394 O   0  0  0  0  0  0  0  0  0  0  0  0
  -13.7561  -19.8267   -9.4967 O   0  0  0  0  0  0  0  0  0  0  0  0
  9 10  1  0  0  0
 10 11  1  0  0  0
 10 12  1  0  0  0
 12 13  1  0  0  0
 13 14  1  0  0  0
 14 15  1  0  0  0
 14 17  1  0  0  0
 14  6  1  0  0  0
 15 16  1  0  0  0
 16 10  1  0  0  0
 17 18  1  0  0  0
 17 19  2  0  0  0
  6  7  1  0  0  0
  6  8  2  0  0  0
  8  1  1  0  0  0
  1  2  2  0  0  0
  2  3  1  0  0  0
  3  4  1  0  0  0
  4  5  2  0  0  0
  5 20  1  0  0  0
  5  1  1  0  0  0
 20 21  2  0  0  0
 21 22  1  0  0  0
 21 23  1  0  0  0
 23 24  1  0  0  0
 23 31  1  0  0  0
 24 25  1  0  0  0
 25 26  1  0  0  0
 26 27  1  0  0  0
 26 28  1  0  0  0
 26 29  1  0  0  0
 29 30  1  0  0  0
 30 23  1  0  0  0
 31 32  1  0  0  0
 31 33  2  0  0  0
M  CHG 1   6   1
M  CHG 1   7  -1
M  CHG 1  17   1
M  CHG 1  18  -1
M  CHG 1  21   1
M  CHG 1  22  -1
M  CHG 1  31   1
M  CHG 1  32  -1
M  END
>  <minimizedAffinity>
-4.88996

>  <minimizedRMSD>
4.77610

$$$$
MolPort-003-086-093 MCULE-3563134743 PubChem-4053890


 32 33  0  0  0  0  0  0  0  0999 V2000
  -13.5362  -20.4846   -6.6442 N   0  0  0  0  0  0  0  0  0  0  0  0
  -14.5995  -21.4500   -6.9748 C   0  0  0  0  0  0  0  0  0  0  0  0
  -14.8673  -21.5782   -8.4809 C   0  0  0  0  0  0  0  0  0  0  0  0
  -13.5776  -21.4468   -9.2911 C   0  0  0  0  0  0  0  0  0  0  0  0
  -12.4546  -21.5866   -8.4643 O   0  0  0  0  0  0  0  0  0  0  0  0
  -12.4529  -20.4440   -7.6451 C   0  0  0  0  0  0  0  0  0  0  0  0
  -14.2266  -18.8942   -6.4791 S   0  0  0  0  0  0  0  0  0  0  0  0
  -14.1698  -18.4841   -5.0337 O   0  0  0  0  0  0  0  0  0  0  0  0
  -13.3896  -17.9116   -7.2501 O   0  0  0  0  0  0  0  0  0  0  0  0
  -19.9670  -18.7558   -8.5183 C   0  0  0  0  0  0  0  0  0  0  0  0
  -18.5680  -18.7872   -8.0191 C   0  0  0  0  0  0  0  0  0  0  0  0
  -17.5163  -18.4611   -8.8707 C   0  0  0  0  0  0  0  0  0  0  0  0
  -16.1968  -18.4873   -8.4134 C   0  0  0  0  0  0  0  0  0  0  0  0
  -15.1317  -18.1366   -9.3959 C   0  0  0  0  0  0  0  0  0  0  0  0
  -15.9122  -18.8449   -7.0710 C   0  0  0  0  0  0  0  0  0  0  0  0
  -16.9951  -19.1825   -6.2192 C   0  0  0  0  0  0  0  0  0  0  0  0
  -16.8051  -19.6046   -4.8022 C   0  0  0  0  0  0  0  0  0  0  0  0
  -18.3060  -19.1492   -6.7008 C   0  0  0  0  0  0  0  0  0  0  0  0
  -11.1014  -20.2975   -6.9588 C   0  0  0  0  0  0  0  0  0  0  0  0
  -10.2145  -19.4583   -7.7515 N   0  0  0  0  0  0  0  0  0  0  0  0
   -8.7973  -19.6401   -7.7489 C   0  0  0  0  0  0  0  0  0  0  0  0
   -8.2753  -20.5513   -7.0510 O   0  0  0  0  0  0  0  0  0  0  0  0
  -10.6030  -18.7438   -8.3062 H   0  0  0  0  0  0  0  0  0  0  0  0
   -7.9463  -18.7610   -8.5581 C   0  0  0  0  0  0  0  0  0  0  0  0
   -6.6923  -18.8180   -8.4401 O   0  0  0  0  0  0  0  0  0  0  0  0
   -8.5415  -17.8446   -9.4785 N   0  0  0  0  0  0  0  0  0  0  0  0
   -9.5226  -17.8139   -9.5540 H   0  0  0  0  0  0  0  0  0  0  0  0
   -7.7426  -16.9558  -10.3075 C   0  0  0  0  0  0  0  0  0  0  0  0
   -8.6375  -16.1880  -11.2666 C   0  0  0  0  0  0  0  0  0  0  0  0
   -8.7154  -16.8808  -12.6176 C   0  0  0  0  0  0  0  0  0  0  0  0
   -8.8663  -18.2571  -12.4456 O   0  0  0  0  0  0  0  0  0  0  0  0
   -8.1046  -18.6074  -11.9578 H   0  0  0  0  0  0  0  0  0  0  0  0
 10 11  1  0  0  0
 11 12  2  0  0  0
 12 13  1  0  0  0
 13 14  1  0  0  0
 13 15  2  0  0  0
 15 16  1  0  0  0
 15  7  1  0  0  0
 16 17  1  0  0  0
 16 18  2  0  0  0
 18 11  1  0  0  0
  7  8  2  0  0  0
  7  9  2  0  0  0
  7  1  1  0  0  0
  1  2  1  0  0  0
  2  3  1  0  0  0
  3  4  1  0  0  0
  4  5  1  0  0  0
  5  6  1  0  0  0
  6 19  1  0  0  0
  6  1  1  0  0  0
 19 20  1  0  0  0
 20 21  1  0  0  0
 21 22  2  0  0  0
 21 24  1  0  0  0
 24 25  2  0  0  0
 24 26  1  0  0  0
 26 28  1  0  0  0
 28 29  1  0  0  0
 29 30  1  0  0  0
 30 31  1  0  0  0
 20 23  1  0  0  0
 26 27  1  0  0  0
 31 32  1  0  0  0
M  END
>  <minimizedAffinity>
-4.83104

>  <minimizedRMSD>
4.51160

$$$$
MolPort-008-345-391 44932693 ZINC44932693


 33 35  0  0  0  0  0  0  0  0999 V2000
   -8.6777  -20.9282   -7.3711 C   0  0  0  0  0  0  0  0  0  0  0  0
   -7.7441  -21.6543   -6.7371 N   0  0  0  0  0  0  0  0  0  0  0  0
   -8.2686  -21.9585   -5.5807 O   0  0  0  0  0  0  0  0  0  0  0  0
   -9.4781  -21.4976   -5.4083 N   0  0  0  0  0  0  0  0  0  0  0  0
   -9.7770  -20.8475   -6.5437 C   0  0  0  0  0  0  0  0  0  0  0  0
   -7.5400  -19.5320   -8.9500 N   0  0  0  0  0  0  0  0  0  0  0  0
   -6.5559  -19.2533   -8.0253 O   0  0  0  0  0  0  0  0  0  0  0  0
   -8.4849  -20.3450   -8.6660 N   0  0  0  0  0  0  0  0  0  0  0  0
   -6.3130  -20.7523  -13.1068 C   0  0  0  0  0  0  0  0  0  0  0  0
   -6.7366  -19.2836  -12.9851 C   0  0  0  0  0  0  0  0  0  0  0  0
   -6.5853  -18.6782  -14.3648 C   0  0  0  0  0  0  0  0  0  0  0  0
   -8.1004  -19.1507  -12.6151 O   0  0  0  0  0  0  0  0  0  0  0  0
   -8.3052  -19.6620  -11.3159 C   0  0  0  0  0  0  0  0  0  0  0  0
   -7.4430  -18.9213  -10.2834 C   0  0  0  0  0  0  0  0  0  0  0  0
   -6.0084  -19.0465  -10.7937 C   0  0  0  0  0  0  0  0  0  0  0  0
   -5.8894  -18.5541  -12.1106 O   0  0  0  0  0  0  0  0  0  0  0  0
   -7.8397  -17.5103  -10.2010 N   0  0  0  0  0  0  0  0  0  0  0  0
   -8.8931  -17.0418  -10.9533 O   0  0  0  0  0  0  0  0  0  0  0  0
   -7.3784  -16.7831   -9.2964 O   0  0  0  0  0  0  0  0  0  0  0  0
  -11.0479  -20.2322   -6.7933 N   0  0  0  0  0  0  0  0  0  0  0  0
  -12.1736  -20.7830   -6.5431 N   0  0  0  0  0  0  0  0  0  0  0  0
  -12.2306  -21.9593   -5.8244 O   0  0  0  0  0  0  0  0  0  0  0  0
  -13.4151  -20.0512   -6.8197 C   0  0  0  0  0  0  0  0  0  0  0  0
  -13.2546  -18.6064   -6.3475 C   0  0  0  0  0  0  0  0  0  0  0  0
  -14.4696  -17.8943   -6.4468 O   0  0  0  0  0  0  0  0  0  0  0  0
  -15.4762  -18.5251   -5.6700 C   0  0  0  0  0  0  0  0  0  0  0  0
  -15.1580  -18.4837   -4.1706 C   0  0  0  0  0  0  0  0  0  0  0  0
  -16.7519  -17.7314   -5.8593 C   0  0  0  0  0  0  0  0  0  0  0  0
  -15.7309  -19.8447   -6.1265 O   0  0  0  0  0  0  0  0  0  0  0  0
  -14.5686  -20.6348   -6.0040 C   0  0  0  0  0  0  0  0  0  0  0  0
  -13.7395  -20.1182   -8.2525 N   0  0  0  0  0  0  0  0  0  0  0  0
  -13.5580  -19.0270   -9.0726 O   0  0  0  0  0  0  0  0  0  0  0  0
  -14.0834  -21.2050   -8.7618 O   0  0  0  0  0  0  0  0  0  0  0  0
  9 10  1  0  0  0
 10 11  1  0  0  0
 10 12  1  0  0  0
 12 13  1  0  0  0
 13 14  1  0  0  0
 14 15  1  0  0  0
 14 17  1  0  0  0
 14  6  1  0  0  0
 15 16  1  0  0  0
 16 10  1  0  0  0
 17 18  1  0  0  0
 17 19  2  0  0  0
  6  7  1  0  0  0
  6  8  2  0  0  0
  8  1  1  0  0  0
  1  2  2  0  0  0
  2  3  1  0  0  0
  3  4  1  0  0  0
  4  5  2  0  0  0
  5 20  1  0  0  0
  5  1  1  0  0  0
 20 21  2  0  0  0
 21 22  1  0  0  0
 21 23  1  0  0  0
 23 24  1  0  0  0
 23 31  1  0  0  0
 24 25  1  0  0  0
 25 26  1  0  0  0
 26 27  1  0  0  0
 26 28  1  0  0  0
 26 29  1  0  0  0
 29 30  1  0  0  0
 30 23  1  0  0  0
 31 32  1  0  0  0
 31 33  2  0  0  0
M  CHG 1   6   1
M  CHG 1   7  -1
M  CHG 1  17   1
M  CHG 1  18  -1
M  CHG 1  21   1
M  CHG 1  22  -1
M  CHG 1  31   1
M  CHG 1  32  -1
M  END
>  <minimizedAffinity>
-4.69032

>  <minimizedRMSD>
4.94308

$$$$
MolPort-007-890-806 ChemDiv-G862-0343 MCULE-8972219873 PubChem-22585039 ZINC000015824196 ZINC15824196


 31 34  0  0  0  0  0  0  0  0999 V2000
   -6.6498  -19.5972   -8.9499 C   0  0  0  0  0  0  0  0  0  0  0  0
   -6.8650  -19.6129   -7.5626 C   0  0  0  0  0  0  0  0  0  0  0  0
   -8.1260  -19.6261   -7.0577 N   0  0  0  0  0  0  0  0  0  0  0  0
   -9.2157  -19.6241   -7.8682 C   0  0  0  0  0  0  0  0  0  0  0  0
   -9.0540  -19.6086   -9.2540 C   0  0  0  0  0  0  0  0  0  0  0  0
   -7.7724  -19.6065   -9.8098 C   0  0  0  0  0  0  0  0  0  0  0  0
   -5.0760  -19.4379  -10.8573 C   0  0  0  0  0  0  0  0  0  0  0  0
   -5.3507  -19.5551   -9.4676 O   0  0  0  0  0  0  0  0  0  0  0  0
  -10.5828  -19.6115   -7.2766 C   0  0  0  0  0  0  0  0  0  0  0  0
  -11.8469  -19.6251   -8.5858 S   0  0  0  0  0  0  0  0  0  0  0  0
  -13.1159  -18.9613   -7.5080 C   0  0  0  0  0  0  0  0  0  0  0  0
  -12.9346  -18.6680   -6.2079 N   0  0  0  0  0  0  0  0  0  0  0  0
  -14.1093  -18.2062   -5.7950 N   0  0  0  0  0  0  0  0  0  0  0  0
  -14.9787  -18.2110   -6.7961 N   0  0  0  0  0  0  0  0  0  0  0  0
  -14.3738  -18.6769   -7.8718 N   0  0  0  0  0  0  0  0  0  0  0  0
  -14.9934  -18.8423   -9.1743 C   0  0  0  0  0  0  0  0  0  0  0  0
   -7.6782  -19.6027  -11.2102 O   0  0  0  0  0  0  0  0  0  0  0  0
   -8.6159  -18.9916  -12.0908 C   0  0  0  0  0  0  0  0  0  0  0  0
   -7.9449  -17.9580  -12.9320 C   0  0  0  0  0  0  0  0  0  0  0  0
   -8.2742  -16.7500  -12.7995 O   0  0  0  0  0  0  0  0  0  0  0  0
   -6.9677  -18.3596  -13.9016 N   0  0  0  0  0  0  0  0  0  0  0  0
   -6.8093  -19.3269  -13.9942 H   0  0  0  0  0  0  0  0  0  0  0  0
   -6.1974  -17.4979  -14.7502 C   0  0  0  0  0  0  0  0  0  0  0  0
   -4.7878  -17.5379  -14.6531 C   0  0  0  0  0  0  0  0  0  0  0  0
   -3.9846  -16.7079  -15.4560 C   0  0  0  0  0  0  0  0  0  0  0  0
   -4.6311  -15.8517  -16.3422 C   0  0  0  0  0  0  0  0  0  0  0  0
   -4.0736  -14.9485  -17.2249 O   0  0  0  0  0  0  0  0  0  0  0  0
   -5.1423  -14.2953  -17.9255 C   0  0  0  0  0  0  0  0  0  0  0  0
   -6.3432  -14.8724  -17.3939 O   0  0  0  0  0  0  0  0  0  0  0  0
   -5.9833  -15.8055  -16.4419 C   0  0  0  0  0  0  0  0  0  0  0  0
   -6.8095  -16.6114  -15.6636 C   0  0  0  0  0  0  0  0  0  0  0  0
  7  8  1  0  0  0
  8  1  1  0  0  0
  1  2  2  0  0  0
  2  3  1  0  0  0
  3  4  2  0  0  0
  4  9  1  0  0  0
  4  5  1  0  0  0
  9 10  1  0  0  0
 10 11  1  0  0  0
 11 12  2  0  0  0
 12 13  1  0  0  0
 13 14  2  0  0  0
 14 15  1  0  0  0
 15 16  1  0  0  0
 15 11  1  0  0  0
  5  6  2  0  0  0
  6 17  1  0  0  0
  6  1  1  0  0  0
 17 18  1  0  0  0
 18 19  1  0  0  0
 19 20  2  0  0  0
 19 21  1  0  0  0
 21 23  1  0  0  0
 23 24  2  0  0  0
 24 25  1  0  0  0
 25 26  2  0  0  0
 26 27  1  0  0  0
 27 28  1  0  0  0
 28 29  1  0  0  0
 29 30  1  0  0  0
 30 31  2  0  0  0
 30 26  1  0  0  0
 31 23  1  0  0  0
 21 22  1  0  0  0
M  END
>  <minimizedAffinity>
-4.36832

>  <minimizedRMSD>
4.74305

$$$$
MolPort-047-717-173 MCULE-7953443811


 26 28  0  0  0  0  0  0  0  0999 V2000
  -12.5022  -19.9229   -7.5486 C   0  0  0  0  0  0  0  0  0  0  0  0
  -12.9498  -19.2712   -6.2247 C   0  0  0  0  0  0  0  0  0  0  0  0
  -14.2970  -18.7166   -6.3513 N   0  0  0  0  0  0  0  0  0  0  0  0
  -14.6530  -17.9782   -7.5643 C   0  0  0  0  0  0  0  0  0  0  0  0
  -13.5751  -18.1751   -8.6240 C   0  0  0  0  0  0  0  0  0  0  0  0
  -13.2454  -19.5426   -8.6983 O   0  0  0  0  0  0  0  0  0  0  0  0
  -15.2888  -19.0124   -5.3543 C   0  0  0  0  0  0  0  0  0  0  0  0
  -15.0744  -19.9231   -4.5086 O   0  0  0  0  0  0  0  0  0  0  0  0
  -16.5770  -18.2880   -5.3113 C   0  0  0  0  0  0  0  0  0  0  0  0
  -16.7351  -17.1137   -4.5394 C   0  0  0  0  0  0  0  0  0  0  0  0
  -15.4142  -16.5099   -3.5318 Cl  0  0  0  0  0  0  0  0  0  0  0  0
  -17.9759  -16.4476   -4.5343 C   0  0  0  0  0  0  0  0  0  0  0  0
  -18.1884  -15.2049   -3.7389 C   0  0  0  0  0  0  0  0  0  0  0  0
  -19.0448  -16.9524   -5.2764 C   0  0  0  0  0  0  0  0  0  0  0  0
  -18.8942  -18.1191   -6.0237 C   0  0  0  0  0  0  0  0  0  0  0  0
  -17.6709  -18.7897   -6.0392 C   0  0  0  0  0  0  0  0  0  0  0  0
  -17.5493  -19.9177   -6.7835 F   0  0  0  0  0  0  0  0  0  0  0  0
   -9.1469  -19.6949   -8.6760 N   0  0  0  0  0  0  0  0  0  0  0  0
   -8.9811  -19.4026   -7.3975 N   0  0  0  0  0  0  0  0  0  0  0  0
  -10.1591  -19.4385   -6.7955 N   0  0  0  0  0  0  0  0  0  0  0  0
  -11.0342  -19.7594   -7.7692 C   0  0  0  0  0  0  0  0  0  0  0  0
  -10.4174  -19.9231   -8.9560 N   0  0  0  0  0  0  0  0  0  0  0  0
   -8.0766  -19.7364   -9.6575 C   0  0  0  0  0  0  0  0  0  0  0  0
   -8.6423  -19.5450  -11.0519 C   0  0  0  0  0  0  0  0  0  0  0  0
   -8.2362  -19.0875  -13.1701 C   0  0  0  0  0  0  0  0  0  0  0  0
   -7.6023  -19.2954  -11.9459 O   0  0  0  0  0  0  0  0  0  0  0  0
 25 26  1  0  0  0
 26 24  1  0  0  0
 24 23  1  0  0  0
 23 18  1  0  0  0
 18 19  1  0  0  0
 19 20  2  0  0  0
 20 21  1  0  0  0
 21 22  2  0  0  0
 21  1  1  0  0  0
  1  2  1  0  0  0
  2  3  1  0  0  0
  3  4  1  0  0  0
  4  5  1  0  0  0
  5  6  1  0  0  0
  3  7  1  0  0  0
  7  8  2  0  0  0
  7  9  1  0  0  0
  9 10  2  0  0  0
 10 11  1  0  0  0
 10 12  1  0  0  0
 12 13  1  0  0  0
 12 14  2  0  0  0
 14 15  1  0  0  0
 15 16  2  0  0  0
 16 17  1  0  0  0
 22 18  1  0  0  0
  6  1  1  0  0  0
 16  9  1  0  0  0
M  END
>  <minimizedAffinity>
-4.01011

>  <minimizedRMSD>
4.84382

$$$$
