MolPort-044-727-289


 47 51  0  0  0  0  0  0  0  0999 V2000
  -12.1658  -20.6235   -8.5075 C   0  0  0  0  0  0  0  0  0  0  0  0
  -13.1685  -19.6526   -8.6749 O   0  0  0  0  0  0  0  0  0  0  0  0
  -14.3952  -20.3368   -8.7367 C   0  0  0  0  0  0  0  0  0  0  0  0
  -14.5007  -21.1201  -10.0540 C   0  0  0  0  0  0  0  0  0  0  0  0
  -15.6997  -21.8350  -10.0915 O   0  0  0  0  0  0  0  0  0  0  0  0
  -13.3276  -22.0956  -10.1615 C   0  0  0  0  0  0  0  0  0  0  0  0
  -13.2622  -22.6125  -11.4559 O   0  0  0  0  0  0  0  0  0  0  0  0
  -12.0003  -21.4230   -9.8054 C   0  0  0  0  0  0  0  0  0  0  0  0
  -11.0181  -22.4023   -9.6428 O   0  0  0  0  0  0  0  0  0  0  0  0
  -15.7264  -22.4608   -9.3508 H   0  0  0  0  0  0  0  0  0  0  0  0
  -13.1125  -21.8898  -12.0855 H   0  0  0  0  0  0  0  0  0  0  0  0
  -11.2800  -23.0080   -8.9319 H   0  0  0  0  0  0  0  0  0  0  0  0
  -15.5306  -19.3634   -8.5660 C   0  0  0  0  0  0  0  0  0  0  0  0
  -16.1828  -18.8037   -9.6809 C   0  0  0  0  0  0  0  0  0  0  0  0
  -15.8000  -19.1415  -10.9740 O   0  0  0  0  0  0  0  0  0  0  0  0
  -17.2257  -17.8982   -9.4996 C   0  0  0  0  0  0  0  0  0  0  0  0
  -17.6349  -17.5327   -8.2184 C   0  0  0  0  0  0  0  0  0  0  0  0
  -18.6335  -16.6665   -8.0856 O   0  0  0  0  0  0  0  0  0  0  0  0
  -19.0817  -16.2654   -6.9031 C   0  0  0  0  0  0  0  0  0  0  0  0
  -20.1381  -15.3521   -6.8367 C   0  0  0  0  0  0  0  0  0  0  0  0
  -20.6187  -14.9232   -5.5964 C   0  0  0  0  0  0  0  0  0  0  0  0
  -20.0452  -15.4057   -4.4166 C   0  0  0  0  0  0  0  0  0  0  0  0
  -20.5243  -14.9765   -3.1869 O   0  0  0  0  0  0  0  0  0  0  0  0
  -18.9891  -16.3193   -4.4739 C   0  0  0  0  0  0  0  0  0  0  0  0
  -18.4998  -16.7557   -5.7144 C   0  0  0  0  0  0  0  0  0  0  0  0
  -17.4437  -17.6735   -5.8063 C   0  0  0  0  0  0  0  0  0  0  0  0
  -16.9144  -18.1257   -4.7529 O   0  0  0  0  0  0  0  0  0  0  0  0
  -16.9905  -18.0795   -7.0811 C   0  0  0  0  0  0  0  0  0  0  0  0
  -15.9306  -18.9997   -7.2676 C   0  0  0  0  0  0  0  0  0  0  0  0
  -15.2696  -19.5578   -6.1755 O   0  0  0  0  0  0  0  0  0  0  0  0
  -15.1002  -19.7492  -11.1117 H   0  0  0  0  0  0  0  0  0  0  0  0
  -21.2324  -14.3640   -3.1478 H   0  0  0  0  0  0  0  0  0  0  0  0
  -15.5248  -19.3252   -5.3045 H   0  0  0  0  0  0  0  0  0  0  0  0
  -10.8616  -19.9324   -8.1405 C   0  0  0  0  0  0  0  0  0  0  0  0
  -10.0227  -19.8789   -9.2564 O   0  0  0  0  0  0  0  0  0  0  0  0
   -6.7802  -18.4774   -9.5532 C   0  0  0  0  0  0  0  0  0  0  0  0
   -6.4905  -17.1717   -9.1418 O   0  0  0  0  0  0  0  0  0  0  0  0
   -6.7541  -19.4046   -8.3539 C   0  0  0  0  0  0  0  0  0  0  0  0
   -8.0534  -19.8779   -8.0832 O   0  0  0  0  0  0  0  0  0  0  0  0
   -8.9360  -19.1004   -8.8521 C   0  0  0  0  0  0  0  0  0  0  0  0
   -8.1907  -18.5990  -10.0590 C   0  0  0  0  0  0  0  0  0  0  0  0
   -8.7097  -17.3712  -10.4787 O   0  0  0  0  0  0  0  0  0  0  0  0
   -5.5756  -17.1289   -8.8224 H   0  0  0  0  0  0  0  0  0  0  0  0
   -8.6741  -16.7374   -9.7452 H   0  0  0  0  0  0  0  0  0  0  0  0
   -6.1360  -20.2001  -11.0977 O   0  0  0  0  0  0  0  0  0  0  0  0
   -5.7983  -18.9302  -10.6245 C   0  0  0  0  0  0  0  0  0  0  0  0
   -5.5002  -20.4712  -11.7783 H   0  0  0  0  0  0  0  0  0  0  0  0
 45 46  1  0  0  0
 46 36  1  0  0  0
 36 37  1  0  0  0
 36 38  1  0  0  0
 38 39  1  0  0  0
 39 40  1  0  0  0
 40 35  1  0  0  0
 35 34  1  0  0  0
  1 34  1  0  0  0
  1  2  1  0  0  0
  2  3  1  0  0  0
  3  4  1  0  0  0
  4  5  1  0  0  0
  4  6  1  0  0  0
  6  7  1  0  0  0
  6  8  1  0  0  0
  8  9  1  0  0  0
  3 13  1  0  0  0
 13 14  2  0  0  0
 14 15  1  0  0  0
 14 16  1  0  0  0
 16 17  2  0  0  0
 17 18  1  0  0  0
 18 19  1  0  0  0
 19 20  2  0  0  0
 20 21  1  0  0  0
 21 22  2  0  0  0
 22 23  1  0  0  0
 22 24  1  0  0  0
 24 25  2  0  0  0
 25 26  1  0  0  0
 26 27  2  0  0  0
 26 28  1  0  0  0
 28 29  2  0  0  0
 29 30  1  0  0  0
 40 41  1  0  0  0
 41 42  1  0  0  0
 41 36  1  0  0  0
  8  1  1  0  0  0
 29 13  1  0  0  0
 28 17  1  0  0  0
 25 19  1  0  0  0
 45 47  1  0  0  0
 37 43  1  0  0  0
  5 10  1  0  0  0
  7 11  1  0  0  0
  9 12  1  0  0  0
 15 31  1  0  0  0
 23 32  1  0  0  0
 30 33  1  0  0  0
 42 44  1  0  0  0
M  END
>  <minimizedAffinity>
-6.04016

>  <minimizedRMSD>
5.39623

$$$$
