MolPort-002-137-228 19321413 ChemDiv-8002-1775 MCULE-9041373227 PubChem-2281176 ZINC000019321413 ZINC19321413


 20 20  0  0  0  0  0  0  0  0999 V2000
   -8.2841  -18.2731   -9.2324 C   0  0  0  0  0  0  0  0  0  0  0  0
   -8.9882  -18.8384  -10.3959 N   0  0  0  0  0  0  0  0  0  0  0  0
  -10.3215  -19.1712  -10.3125 O   0  0  0  0  0  0  0  0  0  0  0  0
   -8.3528  -19.1711  -11.4185 O   0  0  0  0  0  0  0  0  0  0  0  0
   -8.7627  -18.9096   -7.9947 N   0  0  0  0  0  0  0  0  0  0  0  0
   -7.9049  -19.1712   -6.9498 O   0  0  0  0  0  0  0  0  0  0  0  0
   -9.9871  -19.0861   -7.8210 O   0  0  0  0  0  0  0  0  0  0  0  0
   -8.5785  -16.7700   -9.1186 C   0  0  0  0  0  0  0  0  0  0  0  0
   -8.3365  -14.8288  -12.4599 C   0  0  0  0  0  0  0  0  0  0  0  0
   -8.9144  -15.5868  -11.3202 C   0  0  0  0  0  0  0  0  0  0  0  0
  -10.1487  -15.8379  -11.2998 O   0  0  0  0  0  0  0  0  0  0  0  0
   -8.0652  -16.0229  -10.2601 N   0  0  0  0  0  0  0  0  0  0  0  0
   -7.1041  -15.8130  -10.3007 H   0  0  0  0  0  0  0  0  0  0  0  0
   -6.7650  -18.4718   -9.3949 C   0  0  0  0  0  0  0  0  0  0  0  0
   -6.4191  -18.8634  -10.7544 N   0  0  0  0  0  0  0  0  0  0  0  0
   -4.9681  -19.0672  -10.7829 C   0  0  0  0  0  0  0  0  0  0  0  0
   -4.4536  -19.1711  -12.2287 C   0  0  0  0  0  0  0  0  0  0  0  0
   -5.5204  -19.1712  -13.1476 O   0  0  0  0  0  0  0  0  0  0  0  0
   -6.1575  -17.9212  -13.0296 C   0  0  0  0  0  0  0  0  0  0  0  0
   -6.7698  -17.7413  -11.6302 C   0  0  0  0  0  0  0  0  0  0  0  0
  9 10  1  0  0  0
 10 11  2  0  0  0
 10 12  1  0  0  0
 12  8  1  0  0  0
  8  1  1  0  0  0
  1 14  1  0  0  0
  1  2  1  0  0  0
  1  5  1  0  0  0
 14 15  1  0  0  0
 15 16  1  0  0  0
 16 17  1  0  0  0
 17 18  1  0  0  0
 18 19  1  0  0  0
 19 20  1  0  0  0
 20 15  1  0  0  0
  2  3  1  0  0  0
  2  4  2  0  0  0
  5  6  1  0  0  0
  5  7  2  0  0  0
 12 13  1  0  0  0
M  CHG 1   2   1
M  CHG 1   3  -1
M  CHG 1   5   1
M  CHG 1   6  -1
M  END
>  <minimizedAffinity>
0.82592

>  <minimizedRMSD>
5.53129

$$$$
MolPort-002-137-228 19321413 ChemDiv-8002-1775 MCULE-9041373227 PubChem-2281176 ZINC000019321413 ZINC19321413


 20 20  0  0  0  0  0  0  0  0999 V2000
   -8.5493  -15.8985  -12.0279 C   0  0  0  0  0  0  0  0  0  0  0  0
   -9.9766  -16.0080  -12.3744 N   0  0  0  0  0  0  0  0  0  0  0  0
  -10.9161  -15.2453  -11.7178 O   0  0  0  0  0  0  0  0  0  0  0  0
  -10.3714  -16.9030  -13.1512 O   0  0  0  0  0  0  0  0  0  0  0  0
   -7.9625  -14.7138  -12.6746 N   0  0  0  0  0  0  0  0  0  0  0  0
   -6.6707  -14.7283  -13.1512 O   0  0  0  0  0  0  0  0  0  0  0  0
   -8.6829  -13.7260  -12.9310 O   0  0  0  0  0  0  0  0  0  0  0  0
   -7.7868  -17.1278  -12.5438 C   0  0  0  0  0  0  0  0  0  0  0  0
   -4.7427  -18.9265  -10.9664 C   0  0  0  0  0  0  0  0  0  0  0  0
   -5.7460  -18.4951  -11.9738 C   0  0  0  0  0  0  0  0  0  0  0  0
   -5.6780  -18.9376  -13.1512 O   0  0  0  0  0  0  0  0  0  0  0  0
   -6.7768  -17.5837  -11.5969 N   0  0  0  0  0  0  0  0  0  0  0  0
   -6.8068  -17.2530  -10.6702 H   0  0  0  0  0  0  0  0  0  0  0  0
   -8.3888  -15.8194  -10.4977 C   0  0  0  0  0  0  0  0  0  0  0  0
   -7.7226  -17.0012   -9.9678 N   0  0  0  0  0  0  0  0  0  0  0  0
   -8.7453  -17.7951   -9.2814 C   0  0  0  0  0  0  0  0  0  0  0  0
   -8.1035  -18.8944   -8.4180 C   0  0  0  0  0  0  0  0  0  0  0  0
   -6.7090  -18.9376   -8.6067 O   0  0  0  0  0  0  0  0  0  0  0  0
   -6.1992  -17.7081   -8.1477 C   0  0  0  0  0  0  0  0  0  0  0  0
   -6.7309  -16.5379   -8.9924 C   0  0  0  0  0  0  0  0  0  0  0  0
  9 10  1  0  0  0
 10 11  2  0  0  0
 10 12  1  0  0  0
 12  8  1  0  0  0
  8  1  1  0  0  0
  1 14  1  0  0  0
  1  2  1  0  0  0
  1  5  1  0  0  0
 14 15  1  0  0  0
 15 16  1  0  0  0
 16 17  1  0  0  0
 17 18  1  0  0  0
 18 19  1  0  0  0
 19 20  1  0  0  0
 20 15  1  0  0  0
  2  3  1  0  0  0
  2  4  2  0  0  0
  5  6  1  0  0  0
  5  7  2  0  0  0
 12 13  1  0  0  0
M  CHG 1   2   1
M  CHG 1   3  -1
M  CHG 1   5   1
M  CHG 1   6  -1
M  END
>  <minimizedAffinity>
5.09495

>  <minimizedRMSD>
6.93034

$$$$
MolPort-008-504-436 LN01889635 MCULE-1756476186 PubChem-75357315


 22 23  0  0  0  0  0  0  0  0999 V2000
  -11.6964  -18.9212   -6.7805 N   0  0  0  0  0  0  0  0  0  0  0  0
  -10.9555  -18.9732   -8.0049 C   0  0  0  0  0  0  0  0  0  0  0  0
  -11.5367  -18.9831   -9.1218 O   0  0  0  0  0  0  0  0  0  0  0  0
  -11.1756  -18.9396   -5.9453 H   0  0  0  0  0  0  0  0  0  0  0  0
  -15.9931  -18.9811   -4.4008 C   0  0  0  0  0  0  0  0  0  0  0  0
  -15.0926  -18.8648   -5.5809 C   0  0  0  0  0  0  0  0  0  0  0  0
  -15.5465  -18.6293   -6.8748 C   0  0  0  0  0  0  0  0  0  0  0  0
  -14.2196  -18.5664   -7.9038 S   0  0  0  0  0  0  0  0  0  0  0  0
  -13.1212  -18.8451   -6.6522 C   0  0  0  0  0  0  0  0  0  0  0  0
  -13.7436  -18.9831   -5.4612 N   0  0  0  0  0  0  0  0  0  0  0  0
  -16.9632  -18.4563   -7.2991 C   0  0  0  0  0  0  0  0  0  0  0  0
   -9.4669  -18.9830   -7.9565 C   0  0  0  0  0  0  0  0  0  0  0  0
   -8.9320  -18.1336   -9.0078 N   0  0  0  0  0  0  0  0  0  0  0  0
   -8.8857  -16.7702   -8.4708 C   0  0  0  0  0  0  0  0  0  0  0  0
   -8.0656  -15.8118   -9.3532 C   0  0  0  0  0  0  0  0  0  0  0  0
   -7.6617  -16.4554  -10.6787 C   0  0  0  0  0  0  0  0  0  0  0  0
   -6.9576  -17.7972  -10.4466 C   0  0  0  0  0  0  0  0  0  0  0  0
   -7.5636  -18.5777   -9.2719 C   0  0  0  0  0  0  0  0  0  0  0  0
   -7.0020  -18.6174  -11.6915 C   0  0  0  0  0  0  0  0  0  0  0  0
   -5.9286  -18.9829  -12.2366 O   0  0  0  0  0  0  0  0  0  0  0  0
   -8.2204  -18.9823  -12.2526 O   0  0  0  0  0  0  0  0  0  0  0  0
   -9.0217  -18.7118  -11.8492 H   0  0  0  0  0  0  0  0  0  0  0  0
  5  6  1  0  0  0
  6  7  2  0  0  0
  7  8  1  0  0  0
  7 11  1  0  0  0
  8  9  1  0  0  0
  9 10  2  0  0  0
  9  1  1  0  0  0
 10  6  1  0  0  0
  1  2  1  0  0  0
  2  3  2  0  0  0
  2 12  1  0  0  0
 12 13  1  0  0  0
 13 14  1  0  0  0
 14 15  1  0  0  0
 15 16  1  0  0  0
 16 17  1  0  0  0
 17 18  1  0  0  0
 17 19  1  0  0  0
 18 13  1  0  0  0
 19 20  2  0  0  0
 19 21  1  0  0  0
  1  4  1  0  0  0
 21 22  1  0  0  0
M  END
>  <minimizedAffinity>
5.85268

>  <minimizedRMSD>
4.41992

$$$$
MolPort-039-040-077 MCULE-8582285812 PubChem-91834909


 23 24  0  0  0  0  0  0  0  0999 V2000
  -12.8866  -18.6114   -9.3112 N   0  0  0  0  0  0  0  0  0  0  0  0
  -11.4697  -18.4779   -9.1708 C   0  0  0  0  0  0  0  0  0  0  0  0
  -10.9149  -18.6132   -8.0486 O   0  0  0  0  0  0  0  0  0  0  0  0
  -13.2389  -18.7662  -10.2174 H   0  0  0  0  0  0  0  0  0  0  0  0
  -15.7165  -18.1916   -7.1414 N   0  0  0  0  0  0  0  0  0  0  0  0
  -14.7691  -18.3310   -6.2244 N   0  0  0  0  0  0  0  0  0  0  0  0
  -13.6039  -18.5398   -6.8713 C   0  0  0  0  0  0  0  0  0  0  0  0
  -12.2891  -18.6132   -6.1769 C   0  0  0  0  0  0  0  0  0  0  0  0
  -13.8350  -18.5382   -8.2394 C   0  0  0  0  0  0  0  0  0  0  0  0
  -15.1828  -18.2984   -8.3736 C   0  0  0  0  0  0  0  0  0  0  0  0
  -15.9356  -18.1610   -9.6540 C   0  0  0  0  0  0  0  0  0  0  0  0
  -17.2670  -17.5131   -5.3875 C   0  0  0  0  0  0  0  0  0  0  0  0
  -17.1194  -17.9595   -6.8297 C   0  0  0  0  0  0  0  0  0  0  0  0
  -10.6345  -18.2060  -10.3735 C   0  0  0  0  0  0  0  0  0  0  0  0
   -9.3414  -17.6642   -9.9697 N   0  0  0  0  0  0  0  0  0  0  0  0
   -9.1717  -16.3385  -10.5853 C   0  0  0  0  0  0  0  0  0  0  0  0
   -8.7942  -16.4459  -12.0662 C   0  0  0  0  0  0  0  0  0  0  0  0
   -7.6081  -17.1824  -12.1947 O   0  0  0  0  0  0  0  0  0  0  0  0
   -7.9341  -18.5053  -11.8556 C   0  0  0  0  0  0  0  0  0  0  0  0
   -8.2774  -18.6086  -10.3610 C   0  0  0  0  0  0  0  0  0  0  0  0
   -7.0352  -18.4036   -9.5068 C   0  0  0  0  0  0  0  0  0  0  0  0
   -7.3116  -17.5041   -8.4770 O   0  0  0  0  0  0  0  0  0  0  0  0
   -7.5816  -16.6527   -8.8551 H   0  0  0  0  0  0  0  0  0  0  0  0
 12 13  1  0  0  0
 13  5  1  0  0  0
  5  6  1  0  0  0
  6  7  2  0  0  0
  7  8  1  0  0  0
  7  9  1  0  0  0
  9  1  1  0  0  0
  1  2  1  0  0  0
  2  3  2  0  0  0
  2 14  1  0  0  0
 14 15  1  0  0  0
 15 16  1  0  0  0
 16 17  1  0  0  0
 17 18  1  0  0  0
 18 19  1  0  0  0
 19 20  1  0  0  0
 20 21  1  0  0  0
 21 22  1  0  0  0
  9 10  2  0  0  0
 10 11  1  0  0  0
 10  5  1  0  0  0
 20 15  1  0  0  0
  1  4  1  0  0  0
 22 23  1  0  0  0
M  END
>  <minimizedAffinity>
6.51424

>  <minimizedRMSD>
4.08412

$$$$
MolPort-019-890-168 MCULE-9915987770 PubChem-56747813


 22 23  0  0  0  0  0  0  0  0999 V2000
   -6.8449  -17.7557  -10.0291 N   0  0  0  0  0  0  0  0  0  0  0  0
   -7.2382  -16.7006  -10.9599 C   0  0  0  0  0  0  0  0  0  0  0  0
   -8.6652  -16.2577  -10.6920 C   0  0  0  0  0  0  0  0  0  0  0  0
   -9.5733  -17.4704  -10.8336 C   0  0  0  0  0  0  0  0  0  0  0  0
   -9.2841  -18.5350   -9.7712 C   0  0  0  0  0  0  0  0  0  0  0  0
   -9.8484  -19.7366  -10.2062 O   0  0  0  0  0  0  0  0  0  0  0  0
   -7.7960  -18.7283   -9.5569 C   0  0  0  0  0  0  0  0  0  0  0  0
   -7.3915  -19.7366   -8.9149 O   0  0  0  0  0  0  0  0  0  0  0  0
  -10.8008  -19.6154  -10.3440 H   0  0  0  0  0  0  0  0  0  0  0  0
   -5.4662  -17.7946   -9.5559 C   0  0  0  0  0  0  0  0  0  0  0  0
   -4.5387  -18.3127  -10.6439 C   0  0  0  0  0  0  0  0  0  0  0  0
   -4.4805  -19.7366  -12.3274 C   0  0  0  0  0  0  0  0  0  0  0  0
   -4.9098  -19.6073  -11.0076 O   0  0  0  0  0  0  0  0  0  0  0  0
   -9.9562  -18.1013   -8.4658 C   0  0  0  0  0  0  0  0  0  0  0  0
  -11.2627  -18.7227   -8.3054 N   0  0  0  0  0  0  0  0  0  0  0  0
  -11.4484  -18.9499   -6.8759 C   0  0  0  0  0  0  0  0  0  0  0  0
  -12.7386  -19.7366   -6.6350 C   0  0  0  0  0  0  0  0  0  0  0  0
  -13.8537  -19.2031   -7.4195 N   0  0  0  0  0  0  0  0  0  0  0  0
  -15.1827  -19.7366   -7.1725 C   0  0  0  0  0  0  0  0  0  0  0  0
  -13.6349  -18.2608   -8.4824 C   0  0  0  0  0  0  0  0  0  0  0  0
  -14.5971  -17.8369   -9.1762 O   0  0  0  0  0  0  0  0  0  0  0  0
  -12.2547  -17.7407   -8.7356 C   0  0  0  0  0  0  0  0  0  0  0  0
 12 13  1  0  0  0
 13 11  1  0  0  0
 11 10  1  0  0  0
 10  1  1  0  0  0
  1  2  1  0  0  0
  2  3  1  0  0  0
  3  4  1  0  0  0
  4  5  1  0  0  0
  5  6  1  0  0  0
  5 14  1  0  0  0
  5  7  1  0  0  0
 14 15  1  0  0  0
 15 16  1  0  0  0
 16 17  1  0  0  0
 17 18  1  0  0  0
 18 19  1  0  0  0
 18 20  1  0  0  0
 20 21  2  0  0  0
 20 22  1  0  0  0
 22 15  1  0  0  0
  7  8  2  0  0  0
  7  1  1  0  0  0
  6  9  1  0  0  0
M  END
>  <minimizedAffinity>
7.38706

>  <minimizedRMSD>
4.50660

$$$$
MolPort-046-702-459 MCULE-3320050533 PubChem-3083177


 24 24  0  0  0  0  0  0  0  0999 V2000
   -6.5878  -17.3390  -11.0489 C   0  0  0  0  0  0  0  0  0  0  0  0
   -7.1322  -18.5737  -11.7873 C   0  0  0  0  0  0  0  0  0  0  0  0
   -8.5952  -18.3831  -12.1869 C   0  0  0  0  0  0  0  0  0  0  0  0
   -8.8148  -17.0016  -12.8102 C   0  0  0  0  0  0  0  0  0  0  0  0
   -8.1871  -15.9205  -11.9171 C   0  0  0  0  0  0  0  0  0  0  0  0
   -6.8005  -16.1485  -11.7834 O   0  0  0  0  0  0  0  0  0  0  0  0
  -10.1816  -16.7745  -12.9918 O   0  0  0  0  0  0  0  0  0  0  0  0
   -9.4142  -18.5541  -11.0671 O   0  0  0  0  0  0  0  0  0  0  0  0
   -6.3603  -18.8202  -12.9230 O   0  0  0  0  0  0  0  0  0  0  0  0
  -10.6316  -16.8069  -12.1332 H   0  0  0  0  0  0  0  0  0  0  0  0
   -9.1876  -17.8908  -10.3965 H   0  0  0  0  0  0  0  0  0  0  0  0
   -6.4138  -18.0590  -13.5218 H   0  0  0  0  0  0  0  0  0  0  0  0
   -8.3925  -14.5332  -12.5062 C   0  0  0  0  0  0  0  0  0  0  0  0
   -9.7517  -14.2201  -12.5360 O   0  0  0  0  0  0  0  0  0  0  0  0
  -10.2206  -14.8671  -13.0860 H   0  0  0  0  0  0  0  0  0  0  0  0
   -7.1096  -17.2383   -9.7517 O   0  0  0  0  0  0  0  0  0  0  0  0
   -7.1254  -18.5482   -9.2673 C   0  0  0  0  0  0  0  0  0  0  0  0
   -5.7849  -18.8799   -8.6295 C   0  0  0  0  0  0  0  0  0  0  0  0
   -5.8885  -18.8735   -7.2096 O   0  0  0  0  0  0  0  0  0  0  0  0
   -7.1179  -18.8812   -6.5408 C   0  0  0  0  0  0  0  0  0  0  0  0
   -8.1977  -18.8813   -7.1938 O   0  0  0  0  0  0  0  0  0  0  0  0
   -8.4516  -18.8565   -4.3421 C   0  0  0  0  0  0  0  0  0  0  0  0
   -7.1524  -18.8813   -5.0700 C   0  0  0  0  0  0  0  0  0  0  0  0
   -6.0263  -18.8708   -4.3699 C   0  0  0  0  0  0  0  0  0  0  0  0
 22 23  1  0  0  0
 23 24  2  0  0  0
 23 20  1  0  0  0
 20 21  2  0  0  0
 20 19  1  0  0  0
 19 18  1  0  0  0
 18 17  1  0  0  0
 17 16  1  0  0  0
  1 16  1  0  0  0
  1  2  1  0  0  0
  2  3  1  0  0  0
  2  9  1  0  0  0
  3  4  1  0  0  0
  3  8  1  0  0  0
  4  5  1  0  0  0
  4  7  1  0  0  0
  5  6  1  0  0  0
  5 13  1  0  0  0
  6  1  1  0  0  0
 13 14  1  0  0  0
 14 15  1  0  0  0
  7 10  1  0  0  0
  8 11  1  0  0  0
  9 12  1  0  0  0
M  END
>  <minimizedAffinity>
9.05995

>  <minimizedRMSD>
6.03836

$$$$
MolPort-002-137-228 19321413 ChemDiv-8002-1775 MCULE-9041373227 PubChem-2281176 ZINC000019321413 ZINC19321413


 20 20  0  0  0  0  0  0  0  0999 V2000
   -8.9489  -17.5194  -10.5525 C   0  0  0  0  0  0  0  0  0  0  0  0
   -9.1590  -17.9772  -11.9358 N   0  0  0  0  0  0  0  0  0  0  0  0
   -8.3258  -18.9198  -12.4947 O   0  0  0  0  0  0  0  0  0  0  0  0
   -9.9982  -17.4120  -12.6683 O   0  0  0  0  0  0  0  0  0  0  0  0
   -9.5962  -18.4501   -9.6135 N   0  0  0  0  0  0  0  0  0  0  0  0
  -10.7618  -19.0832   -9.9817 O   0  0  0  0  0  0  0  0  0  0  0  0
   -9.1904  -18.5775   -8.4388 O   0  0  0  0  0  0  0  0  0  0  0  0
   -9.6010  -16.1446  -10.3509 C   0  0  0  0  0  0  0  0  0  0  0  0
   -8.3352  -13.4189  -12.7920 C   0  0  0  0  0  0  0  0  0  0  0  0
   -9.1676  -14.5091  -12.2208 C   0  0  0  0  0  0  0  0  0  0  0  0
  -10.1720  -14.9257  -12.8569 O   0  0  0  0  0  0  0  0  0  0  0  0
   -8.8205  -15.0734  -10.9574 N   0  0  0  0  0  0  0  0  0  0  0  0
   -8.0305  -14.7292  -10.4811 H   0  0  0  0  0  0  0  0  0  0  0  0
   -7.4380  -17.4012  -10.2657 C   0  0  0  0  0  0  0  0  0  0  0  0
   -6.6438  -17.9926  -11.3336 N   0  0  0  0  0  0  0  0  0  0  0  0
   -5.5159  -18.6778  -10.6968 C   0  0  0  0  0  0  0  0  0  0  0  0
   -4.4466  -19.0619  -11.7333 C   0  0  0  0  0  0  0  0  0  0  0  0
   -4.8811  -18.7723  -13.0409 O   0  0  0  0  0  0  0  0  0  0  0  0
   -5.0389  -17.3753  -13.1158 C   0  0  0  0  0  0  0  0  0  0  0  0
   -6.1411  -16.8902  -12.1590 C   0  0  0  0  0  0  0  0  0  0  0  0
  9 10  1  0  0  0
 10 11  2  0  0  0
 10 12  1  0  0  0
 12  8  1  0  0  0
  8  1  1  0  0  0
  1 14  1  0  0  0
  1  2  1  0  0  0
  1  5  1  0  0  0
 14 15  1  0  0  0
 15 16  1  0  0  0
 16 17  1  0  0  0
 17 18  1  0  0  0
 18 19  1  0  0  0
 19 20  1  0  0  0
 20 15  1  0  0  0
  2  3  1  0  0  0
  2  4  2  0  0  0
  5  6  1  0  0  0
  5  7  2  0  0  0
 12 13  1  0  0  0
M  CHG 1   2   1
M  CHG 1   3  -1
M  CHG 1   5   1
M  CHG 1   6  -1
M  END
>  <minimizedAffinity>
10.70745

>  <minimizedRMSD>
5.73333

$$$$
MolPort-002-137-228 19321413 ChemDiv-8002-1775 MCULE-9041373227 PubChem-2281176 ZINC000019321413 ZINC19321413


 20 20  0  0  0  0  0  0  0  0999 V2000
   -7.9461  -17.0052  -12.2588 C   0  0  0  0  0  0  0  0  0  0  0  0
   -6.8085  -17.7535  -12.8188 N   0  0  0  0  0  0  0  0  0  0  0  0
   -5.6396  -17.1055  -13.1486 O   0  0  0  0  0  0  0  0  0  0  0  0
   -6.9381  -18.9534  -13.1409 O   0  0  0  0  0  0  0  0  0  0  0  0
   -7.5983  -15.5796  -12.1416 N   0  0  0  0  0  0  0  0  0  0  0  0
   -7.7008  -14.9550  -10.9192 O   0  0  0  0  0  0  0  0  0  0  0  0
   -7.3430  -14.8865  -13.1492 O   0  0  0  0  0  0  0  0  0  0  0  0
   -8.2623  -17.5129  -10.8452 C   0  0  0  0  0  0  0  0  0  0  0  0
   -5.1397  -18.9534   -9.0661 C   0  0  0  0  0  0  0  0  0  0  0  0
   -6.1530  -17.9771   -9.5433 C   0  0  0  0  0  0  0  0  0  0  0  0
   -6.0432  -16.7614   -9.2320 O   0  0  0  0  0  0  0  0  0  0  0  0
   -7.2406  -18.4268  -10.3498 N   0  0  0  0  0  0  0  0  0  0  0  0
   -7.3029  -19.3823  -10.5783 H   0  0  0  0  0  0  0  0  0  0  0  0
   -9.1898  -17.2029  -13.1493 C   0  0  0  0  0  0  0  0  0  0  0  0
  -10.2473  -16.2622  -12.8063 N   0  0  0  0  0  0  0  0  0  0  0  0
   -9.7559  -14.9248  -13.1489 C   0  0  0  0  0  0  0  0  0  0  0  0
  -10.6525  -13.8341  -12.5390 C   0  0  0  0  0  0  0  0  0  0  0  0
  -11.7836  -14.3968  -11.9173 O   0  0  0  0  0  0  0  0  0  0  0  0
  -11.3105  -15.1812  -10.8481 C   0  0  0  0  0  0  0  0  0  0  0  0
  -10.4502  -16.3502  -11.3570 C   0  0  0  0  0  0  0  0  0  0  0  0
  9 10  1  0  0  0
 10 11  2  0  0  0
 10 12  1  0  0  0
 12  8  1  0  0  0
  8  1  1  0  0  0
  1 14  1  0  0  0
  1  2  1  0  0  0
  1  5  1  0  0  0
 14 15  1  0  0  0
 15 16  1  0  0  0
 16 17  1  0  0  0
 17 18  1  0  0  0
 18 19  1  0  0  0
 19 20  1  0  0  0
 20 15  1  0  0  0
  2  3  1  0  0  0
  2  4  2  0  0  0
  5  6  1  0  0  0
  5  7  2  0  0  0
 12 13  1  0  0  0
M  CHG 1   2   1
M  CHG 1   3  -1
M  CHG 1   5   1
M  CHG 1   6  -1
M  END
>  <minimizedAffinity>
11.61786

>  <minimizedRMSD>
6.41156

$$$$
MolPort-010-758-921 ChemDiv-D668-0356 MCULE-8483860561


 21 21  0  0  0  0  0  0  0  0999 V2000
  -15.2048  -16.6550   -3.6164 C   0  0  0  0  0  0  0  0  0  0  0  0
  -14.8315  -16.0896   -4.8517 C   0  0  0  0  0  0  0  0  0  0  0  0
  -14.0146  -14.8438   -4.9296 C   0  0  0  0  0  0  0  0  0  0  0  0
  -15.2146  -16.6826   -6.0118 N   0  0  0  0  0  0  0  0  0  0  0  0
  -15.9542  -17.8191   -6.0104 C   0  0  0  0  0  0  0  0  0  0  0  0
  -16.3319  -18.4023   -7.2120 O   0  0  0  0  0  0  0  0  0  0  0  0
  -16.3241  -18.3866   -4.8358 N   0  0  0  0  0  0  0  0  0  0  0  0
  -15.9693  -17.8375   -3.6457 C   0  0  0  0  0  0  0  0  0  0  0  0
  -16.3330  -18.4023   -2.5810 O   0  0  0  0  0  0  0  0  0  0  0  0
  -16.0764  -18.0103   -8.0238 H   0  0  0  0  0  0  0  0  0  0  0  0
  -16.8600  -19.2124   -4.8461 H   0  0  0  0  0  0  0  0  0  0  0  0
  -14.7106  -15.8961   -2.0894 S   0  0  0  0  0  0  0  0  0  0  0  0
  -13.2585  -15.5067   -2.1210 O   0  0  0  0  0  0  0  0  0  0  0  0
  -14.9237  -16.8715   -0.9650 O   0  0  0  0  0  0  0  0  0  0  0  0
  -15.6734  -14.4784   -1.8344 N   0  0  0  0  0  0  0  0  0  0  0  0
  -16.5062  -14.5149   -2.4222 H   0  0  0  0  0  0  0  0  0  0  0  0
  -14.8680  -13.3205   -2.1900 C   0  0  0  0  0  0  0  0  0  0  0  0
  -14.6060  -12.4904   -0.9502 C   0  0  0  0  0  0  0  0  0  0  0  0
  -15.6063  -12.4756   -3.2111 C   0  0  0  0  0  0  0  0  0  0  0  0
  -15.5419  -11.5134   -5.1948 C   0  0  0  0  0  0  0  0  0  0  0  0
  -14.7222  -12.0466   -4.2014 O   0  0  0  0  0  0  0  0  0  0  0  0
 20 21  1  0  0  0
 21 19  1  0  0  0
 17 19  1  0  0  0
 17 18  1  0  0  0
 17 15  1  0  0  0
 15 12  1  0  0  0
 12 13  2  0  0  0
 12 14  2  0  0  0
 12  1  1  0  0  0
  1  2  2  0  0  0
  2  3  1  0  0  0
  2  4  1  0  0  0
  4  5  2  0  0  0
  5  6  1  0  0  0
  5  7  1  0  0  0
  7  8  1  0  0  0
  8  9  2  0  0  0
  8  1  1  0  0  0
 15 16  1  0  0  0
  6 10  1  0  0  0
  7 11  1  0  0  0
M  END
>  <minimizedAffinity>
13.18776

>  <minimizedRMSD>
7.70119

$$$$
MolPort-047-796-251 1875244908 MCULE-1613569549


 21 23  0  0  0  0  0  0  0  0999 V2000
  -14.7019  -17.4360   -5.5727 N   0  0  0  0  0  0  0  0  0  0  0  0
  -14.4439  -18.0561   -4.2598 C   0  0  0  0  0  0  0  0  0  0  0  0
  -14.0781  -19.5576   -4.2561 C   0  0  0  0  0  0  0  0  0  0  0  0
  -15.2825  -20.4480   -3.9184 C   0  0  0  0  0  0  0  0  0  0  0  0
  -16.4589  -19.9739   -4.5207 O   0  0  0  0  0  0  0  0  0  0  0  0
  -16.4584  -20.4306   -5.8487 C   0  0  0  0  0  0  0  0  0  0  0  0
  -15.5816  -19.5527   -6.7500 C   0  0  0  0  0  0  0  0  0  0  0  0
  -15.7413  -18.0513   -6.4240 C   0  0  0  0  0  0  0  0  0  0  0  0
  -14.1651  -20.0285   -6.7215 C   0  0  0  0  0  0  0  0  0  0  0  0
  -13.6269  -20.4474   -7.7809 O   0  0  0  0  0  0  0  0  0  0  0  0
  -13.4325  -19.9984   -5.4897 N   0  0  0  0  0  0  0  0  0  0  0  0
  -12.0514  -20.4481   -5.4336 C   0  0  0  0  0  0  0  0  0  0  0  0
  -13.4663  -17.1614   -6.2996 C   0  0  0  0  0  0  0  0  0  0  0  0
  -13.6514  -16.6410   -9.7907 C   0  0  0  0  0  0  0  0  0  0  0  0
  -14.7172  -17.4463   -9.6220 N   0  0  0  0  0  0  0  0  0  0  0  0
  -14.7373  -17.7079   -8.3510 O   0  0  0  0  0  0  0  0  0  0  0  0
  -13.7371  -17.1018   -7.7628 C   0  0  0  0  0  0  0  0  0  0  0  0
  -12.9983  -16.3914   -8.6353 N   0  0  0  0  0  0  0  0  0  0  0  0
  -13.2508  -16.0890  -11.1193 C   0  0  0  0  0  0  0  0  0  0  0  0
  -12.5650  -14.0430  -11.5800 C   0  0  0  0  0  0  0  0  0  0  0  0
  -12.1532  -15.2365  -10.9891 O   0  0  0  0  0  0  0  0  0  0  0  0
 20 21  1  0  0  0
 21 19  1  0  0  0
 19 14  1  0  0  0
 14 15  2  0  0  0
 15 16  1  0  0  0
 16 17  1  0  0  0
 17 13  1  0  0  0
 13  1  1  0  0  0
  1  2  1  0  0  0
  3  2  1  0  0  0
  3  4  1  0  0  0
  4  5  1  0  0  0
  5  6  1  0  0  0
  7  6  1  0  0  0
  7  8  1  0  0  0
  7  9  1  0  0  0
  9 10  2  0  0  0
  9 11  1  0  0  0
 11 12  1  0  0  0
 17 18  2  0  0  0
 18 14  1  0  0  0
  8  1  1  0  0  0
 11  3  1  0  0  0
M  END
>  <minimizedAffinity>
15.72020

>  <minimizedRMSD>
5.91151

$$$$
MolPort-046-151-922 1534640246 MCULE-9478174472 PubChem-137954019 ZINC001534640246


 20 22  0  0  0  0  0  0  0  0999 V2000
  -11.3565  -18.5676   -8.7050 N   0  0  0  0  0  0  0  0  0  0  0  0
  -10.1412  -18.7834   -7.9078 C   0  0  0  0  0  0  0  0  0  0  0  0
   -8.9519  -18.2383   -8.6742 C   0  0  0  0  0  0  0  0  0  0  0  0
   -8.8019  -16.8951   -8.3075 O   0  0  0  0  0  0  0  0  0  0  0  0
   -7.4824  -16.5676   -8.6199 C   0  0  0  0  0  0  0  0  0  0  0  0
   -7.4739  -15.5299   -9.7260 C   0  0  0  0  0  0  0  0  0  0  0  0
   -8.6341  -15.9734  -11.0113 S   0  0  0  0  0  0  0  0  0  0  0  0
   -8.1663  -15.3686  -12.3048 O   0  0  0  0  0  0  0  0  0  0  0  0
   -9.9825  -15.4019  -10.6726 O   0  0  0  0  0  0  0  0  0  0  0  0
   -8.7547  -17.7042  -11.2041 N   0  0  0  0  0  0  0  0  0  0  0  0
   -7.4183  -18.2596  -11.3595 C   0  0  0  0  0  0  0  0  0  0  0  0
   -9.4423  -18.4096  -10.1059 C   0  0  0  0  0  0  0  0  0  0  0  0
  -10.9296  -18.1827  -10.0483 C   0  0  0  0  0  0  0  0  0  0  0  0
  -12.0562  -17.4235   -8.1402 C   0  0  0  0  0  0  0  0  0  0  0  0
  -14.7075  -18.2497   -9.4528 C   0  0  0  0  0  0  0  0  0  0  0  0
  -14.4224  -18.2510   -8.0281 N   0  0  0  0  0  0  0  0  0  0  0  0
  -15.2627  -18.6365   -7.0562 C   0  0  0  0  0  0  0  0  0  0  0  0
  -14.5915  -18.4918   -5.8525 C   0  0  0  0  0  0  0  0  0  0  0  0
  -13.3461  -18.0213   -6.0862 N   0  0  0  0  0  0  0  0  0  0  0  0
  -13.2835  -17.8800   -7.4222 C   0  0  0  0  0  0  0  0  0  0  0  0
 15 16  1  0  0  0
 16 17  1  0  0  0
 17 18  2  0  0  0
 18 19  1  0  0  0
 19 20  2  0  0  0
 20 14  1  0  0  0
 14  1  1  0  0  0
  1  2  1  0  0  0
  3  2  1  0  0  0
  3  4  1  0  0  0
  4  5  1  0  0  0
  5  6  1  0  0  0
  6  7  1  0  0  0
  7  8  2  0  0  0
  7  9  2  0  0  0
  7 10  1  0  0  0
 10 11  1  0  0  0
 12 10  1  0  0  0
 12 13  1  0  0  0
 20 16  1  0  0  0
 13  1  1  0  0  0
 12  3  1  0  0  0
M  END
>  <minimizedAffinity>
19.38316

>  <minimizedRMSD>
3.04102

$$$$
MolPort-047-381-532 1857683584 MCULE-5786877974


 23 25  0  0  0  0  0  0  0  0999 V2000
  -15.5134  -15.5353   -3.9627 N   0  0  0  0  0  0  0  0  0  0  0  0
  -16.3386  -16.0871   -2.8946 C   0  0  0  0  0  0  0  0  0  0  0  0
  -16.2153  -17.6042   -2.8958 C   0  0  0  0  0  0  0  0  0  0  0  0
  -16.5344  -18.1609   -4.2847 C   0  0  0  0  0  0  0  0  0  0  0  0
  -16.4135  -19.5530   -4.2724 O   0  0  0  0  0  0  0  0  0  0  0  0
  -15.6699  -17.5344   -5.4063 C   0  0  0  0  0  0  0  0  0  0  0  0
  -16.2872  -17.9625   -6.7437 C   0  0  0  0  0  0  0  0  0  0  0  0
  -15.3475  -17.7062   -7.9128 C   0  0  0  0  0  0  0  0  0  0  0  0
  -14.1228  -18.6018   -7.7881 C   0  0  0  0  0  0  0  0  0  0  0  0
  -13.5389  -18.5277   -6.4514 N   0  0  0  0  0  0  0  0  0  0  0  0
  -14.2169  -17.9784   -5.3149 C   0  0  0  0  0  0  0  0  0  0  0  0
  -13.5809  -17.8481   -4.2350 O   0  0  0  0  0  0  0  0  0  0  0  0
  -15.7494  -16.0017   -5.3268 C   0  0  0  0  0  0  0  0  0  0  0  0
  -15.4975  -19.7962   -4.0660 H   0  0  0  0  0  0  0  0  0  0  0  0
  -12.6267  -18.8752   -6.3239 H   0  0  0  0  0  0  0  0  0  0  0  0
  -12.6417  -12.5848   -3.1546 C   0  0  0  0  0  0  0  0  0  0  0  0
  -12.2725  -13.8171   -3.6902 C   0  0  0  0  0  0  0  0  0  0  0  0
  -13.2170  -14.7588   -3.9469 N   0  0  0  0  0  0  0  0  0  0  0  0
  -14.5337  -14.5238   -3.6909 C   0  0  0  0  0  0  0  0  0  0  0  0
  -14.9122  -13.3257   -3.1661 N   0  0  0  0  0  0  0  0  0  0  0  0
  -13.9979  -12.3586   -2.8957 C   0  0  0  0  0  0  0  0  0  0  0  0
  -10.2739  -11.9240   -2.8958 C   0  0  0  0  0  0  0  0  0  0  0  0
  -11.6625  -11.6228   -2.8942 O   0  0  0  0  0  0  0  0  0  0  0  0
 22 23  1  0  0  0
 23 16  1  0  0  0
 16 17  2  0  0  0
 17 18  1  0  0  0
 18 19  2  0  0  0
 19 20  1  0  0  0
 20 21  2  0  0  0
 19  1  1  0  0  0
  1  2  1  0  0  0
  2  3  1  0  0  0
  3  4  1  0  0  0
  4  5  1  0  0  0
  4  6  1  0  0  0
  6  7  1  0  0  0
  7  8  1  0  0  0
  8  9  1  0  0  0
  9 10  1  0  0  0
 10 11  1  0  0  0
 11 12  2  0  0  0
  6 13  1  0  0  0
 21 16  1  0  0  0
 13  1  1  0  0  0
 11  6  1  0  0  0
  5 14  1  0  0  0
 10 15  1  0  0  0
M  END
>  <minimizedAffinity>
23.96385

>  <minimizedRMSD>
6.56987

$$$$
MolPort-002-152-894 CHEMBL1599259 MCULE-4091675037 PubChem-2848707


 24 25  0  0  0  0  0  0  0  0999 V2000
   -9.9071  -17.5969   -8.8909 N   0  0  0  0  0  0  0  0  0  0  0  0
   -9.6912  -17.6827   -7.9342 H   0  0  0  0  0  0  0  0  0  0  0  0
   -8.9627  -18.1393   -9.8622 C   0  0  0  0  0  0  0  0  0  0  0  0
   -7.7110  -18.3295   -9.2639 O   0  0  0  0  0  0  0  0  0  0  0  0
   -6.7936  -18.3296  -10.3296 C   0  0  0  0  0  0  0  0  0  0  0  0
   -7.3698  -17.5270  -11.4811 C   0  0  0  0  0  0  0  0  0  0  0  0
   -7.3931  -18.3174  -12.6299 O   0  0  0  0  0  0  0  0  0  0  0  0
   -8.7737  -17.2182  -11.0548 C   0  0  0  0  0  0  0  0  0  0  0  0
   -8.8368  -15.8781  -10.6632 O   0  0  0  0  0  0  0  0  0  0  0  0
   -7.9034  -19.1240  -12.4571 H   0  0  0  0  0  0  0  0  0  0  0  0
   -8.1744  -15.7110   -9.9746 H   0  0  0  0  0  0  0  0  0  0  0  0
   -5.4809  -17.7123   -9.8838 C   0  0  0  0  0  0  0  0  0  0  0  0
   -5.7281  -16.5466   -9.1591 O   0  0  0  0  0  0  0  0  0  0  0  0
   -6.2040  -15.9129   -9.7184 H   0  0  0  0  0  0  0  0  0  0  0  0
  -12.3582  -18.3297   -7.5371 C   0  0  0  0  0  0  0  0  0  0  0  0
  -12.3310  -17.2919   -8.6064 C   0  0  0  0  0  0  0  0  0  0  0  0
  -13.5246  -16.6574   -8.9622 C   0  0  0  0  0  0  0  0  0  0  0  0
  -13.5327  -15.6802   -9.9600 C   0  0  0  0  0  0  0  0  0  0  0  0
  -12.3447  -15.3262  -10.6144 C   0  0  0  0  0  0  0  0  0  0  0  0
  -11.1503  -15.9642  -10.2556 C   0  0  0  0  0  0  0  0  0  0  0  0
  -11.1320  -16.9459   -9.2531 C   0  0  0  0  0  0  0  0  0  0  0  0
  -12.3470  -14.3237  -11.6397 N   0  0  0  0  0  0  0  0  0  0  0  0
  -11.3709  -14.3206  -12.6097 O   0  0  0  0  0  0  0  0  0  0  0  0
  -13.2317  -13.4431  -11.6641 O   0  0  0  0  0  0  0  0  0  0  0  0
 15 16  1  0  0  0
 16 17  2  0  0  0
 17 18  1  0  0  0
 18 19  2  0  0  0
 19 20  1  0  0  0
 19 22  1  0  0  0
 20 21  2  0  0  0
 21  1  1  0  0  0
 21 16  1  0  0  0
  3  1  1  0  0  0
  3  4  1  0  0  0
  4  5  1  0  0  0
  5 12  1  0  0  0
  5  6  1  0  0  0
 12 13  1  0  0  0
  6  7  1  0  0  0
  6  8  1  0  0  0
  8  9  1  0  0  0
  8  3  1  0  0  0
 22 23  1  0  0  0
 22 24  2  0  0  0
  1  2  1  0  0  0
 13 14  1  0  0  0
  7 10  1  0  0  0
  9 11  1  0  0  0
M  CHG 1  22   1
M  CHG 1  23  -1
M  END
>  <minimizedAffinity>
25.75976

>  <minimizedRMSD>
4.98965

$$$$
MolPort-005-944-247 MCULE-9344974069 PubChem-45359287


 23 23  0  0  0  0  0  0  0  0999 V2000
  -12.6671  -16.0035   -9.6299 C   0  0  0  0  0  0  0  0  0  0  0  0
  -13.6326  -16.9310   -9.5297 C   0  0  0  0  0  0  0  0  0  0  0  0
  -13.8957  -17.7336   -8.2864 C   0  0  0  0  0  0  0  0  0  0  0  0
  -12.6758  -17.7647   -7.3590 C   0  0  0  0  0  0  0  0  0  0  0  0
  -12.0761  -16.3690   -7.1751 C   0  0  0  0  0  0  0  0  0  0  0  0
  -11.6524  -15.7897   -8.5263 C   0  0  0  0  0  0  0  0  0  0  0  0
  -10.4267  -16.3410   -8.9035 O   0  0  0  0  0  0  0  0  0  0  0  0
  -12.9828  -15.5100   -6.5486 O   0  0  0  0  0  0  0  0  0  0  0  0
  -13.0041  -18.3273   -6.1240 O   0  0  0  0  0  0  0  0  0  0  0  0
  -10.5248  -17.2991   -9.0185 H   0  0  0  0  0  0  0  0  0  0  0  0
  -13.7730  -15.4141   -7.1028 H   0  0  0  0  0  0  0  0  0  0  0  0
  -13.6772  -17.7812   -5.6886 H   0  0  0  0  0  0  0  0  0  0  0  0
  -12.5276  -15.2351  -10.8809 C   0  0  0  0  0  0  0  0  0  0  0  0
  -11.4749  -15.3295  -11.5724 O   0  0  0  0  0  0  0  0  0  0  0  0
  -13.4266  -12.9942  -11.3650 C   0  0  0  0  0  0  0  0  0  0  0  0
  -13.5702  -14.4051  -11.2994 O   0  0  0  0  0  0  0  0  0  0  0  0
  -15.0279  -17.1945   -7.6087 O   0  0  0  0  0  0  0  0  0  0  0  0
  -15.6345  -17.8179   -6.5114 C   0  0  0  0  0  0  0  0  0  0  0  0
  -14.9067  -18.3252   -5.5165 C   0  0  0  0  0  0  0  0  0  0  0  0
  -17.1017  -17.9041   -6.4727 C   0  0  0  0  0  0  0  0  0  0  0  0
  -17.7620  -18.0684   -7.5365 O   0  0  0  0  0  0  0  0  0  0  0  0
  -17.7567  -17.8024   -5.2442 O   0  0  0  0  0  0  0  0  0  0  0  0
  -17.7618  -16.5972   -4.4941 C   0  0  0  0  0  0  0  0  0  0  0  0
 15 16  1  0  0  0
 16 13  1  0  0  0
 13 14  2  0  0  0
 13  1  1  0  0  0
  1  2  2  0  0  0
  2  3  1  0  0  0
  3  4  1  0  0  0
  3 17  1  0  0  0
  4  5  1  0  0  0
  4  9  1  0  0  0
  5  6  1  0  0  0
  5  8  1  0  0  0
  6  7  1  0  0  0
  6  1  1  0  0  0
 17 18  1  0  0  0
 18 19  2  0  0  0
 18 20  1  0  0  0
 20 21  2  0  0  0
 20 22  1  0  0  0
 22 23  1  0  0  0
  7 10  1  0  0  0
  8 11  1  0  0  0
  9 12  1  0  0  0
M  END
>  <minimizedAffinity>
27.53686

>  <minimizedRMSD>
7.50676

$$$$
MolPort-051-477-740


 21 22  0  0  0  0  0  0  0  0999 V2000
  -12.4118  -16.7974   -5.2805 C   0  0  0  0  0  0  0  0  0  0  0  0
  -11.3828  -17.3486   -6.0477 O   0  0  0  0  0  0  0  0  0  0  0  0
  -11.4041  -16.9669   -6.9392 H   0  0  0  0  0  0  0  0  0  0  0  0
  -13.9262  -17.0205   -7.2789 C   0  0  0  0  0  0  0  0  0  0  0  0
  -13.7439  -17.1161   -5.8875 C   0  0  0  0  0  0  0  0  0  0  0  0
  -14.8087  -17.5314   -5.0727 C   0  0  0  0  0  0  0  0  0  0  0  0
  -16.0490  -17.8420   -5.6344 C   0  0  0  0  0  0  0  0  0  0  0  0
  -16.2341  -17.7434   -7.0144 C   0  0  0  0  0  0  0  0  0  0  0  0
  -15.1785  -17.3354   -7.8331 C   0  0  0  0  0  0  0  0  0  0  0  0
  -13.0461  -15.9486   -9.3315 C   0  0  0  0  0  0  0  0  0  0  0  0
  -12.8595  -16.6137   -8.0896 O   0  0  0  0  0  0  0  0  0  0  0  0
  -12.2262  -15.2913   -5.1552 C   0  0  0  0  0  0  0  0  0  0  0  0
  -13.3478  -14.6955   -4.4468 N   0  0  0  0  0  0  0  0  0  0  0  0
  -13.6617  -13.3891   -4.4015 C   0  0  0  0  0  0  0  0  0  0  0  0
  -14.7520  -13.2002   -3.6300 N   0  0  0  0  0  0  0  0  0  0  0  0
  -15.0552  -14.4533   -3.2249 C   0  0  0  0  0  0  0  0  0  0  0  0
  -14.2056  -15.3760   -3.7119 N   0  0  0  0  0  0  0  0  0  0  0  0
  -16.1842  -14.7745   -2.3479 C   0  0  0  0  0  0  0  0  0  0  0  0
  -16.5995  -16.0919   -2.2014 O   0  0  0  0  0  0  0  0  0  0  0  0
  -16.7824  -13.8595   -1.7237 O   0  0  0  0  0  0  0  0  0  0  0  0
  -16.1576  -16.7766   -2.6637 H   0  0  0  0  0  0  0  0  0  0  0  0
 10 11  1  0  0  0
 11  4  1  0  0  0
  4  5  2  0  0  0
  5  6  1  0  0  0
  6  7  2  0  0  0
  7  8  1  0  0  0
  8  9  2  0  0  0
  5  1  1  0  0  0
  1  2  1  0  0  0
  1 12  1  0  0  0
 12 13  1  0  0  0
 13 14  1  0  0  0
 14 15  2  0  0  0
 15 16  1  0  0  0
 16 17  2  0  0  0
 16 18  1  0  0  0
 18 19  1  0  0  0
 18 20  2  0  0  0
  9  4  1  0  0  0
 17 13  1  0  0  0
  2  3  1  0  0  0
 19 21  1  0  0  0
M  END
>  <minimizedAffinity>
29.00017

>  <minimizedRMSD>
6.98054

$$$$
MolPort-047-381-532 1857683584 MCULE-5786877974


 23 25  0  0  0  0  0  0  0  0999 V2000
  -15.2747  -14.9724   -4.0665 N   0  0  0  0  0  0  0  0  0  0  0  0
  -16.2935  -15.3121   -3.0802 C   0  0  0  0  0  0  0  0  0  0  0  0
  -16.3295  -16.8222   -2.8934 C   0  0  0  0  0  0  0  0  0  0  0  0
  -16.5082  -17.5194   -4.2435 C   0  0  0  0  0  0  0  0  0  0  0  0
  -16.5356  -18.9040   -4.0577 O   0  0  0  0  0  0  0  0  0  0  0  0
  -15.4355  -17.1159   -5.2848 C   0  0  0  0  0  0  0  0  0  0  0  0
  -15.9016  -17.6537   -6.6437 C   0  0  0  0  0  0  0  0  0  0  0  0
  -14.7867  -17.6287   -7.6790 C   0  0  0  0  0  0  0  0  0  0  0  0
  -13.6912  -18.6041   -7.2720 C   0  0  0  0  0  0  0  0  0  0  0  0
  -13.2946  -18.4135   -5.8793 N   0  0  0  0  0  0  0  0  0  0  0  0
  -14.0635  -17.6691   -4.9266 C   0  0  0  0  0  0  0  0  0  0  0  0
  -13.5741  -17.4596   -3.7844 O   0  0  0  0  0  0  0  0  0  0  0  0
  -15.3656  -15.5844   -5.3898 C   0  0  0  0  0  0  0  0  0  0  0  0
  -15.6876  -19.1977   -3.6896 H   0  0  0  0  0  0  0  0  0  0  0  0
  -12.4502  -18.8199   -5.5777 H   0  0  0  0  0  0  0  0  0  0  0  0
  -12.2600  -12.1867   -3.1967 C   0  0  0  0  0  0  0  0  0  0  0  0
  -11.9497  -13.4315   -3.7548 C   0  0  0  0  0  0  0  0  0  0  0  0
  -12.9399  -14.3202   -4.0272 N   0  0  0  0  0  0  0  0  0  0  0  0
  -14.2425  -14.0234   -3.7648 C   0  0  0  0  0  0  0  0  0  0  0  0
  -14.5598  -12.8150   -3.2229 N   0  0  0  0  0  0  0  0  0  0  0  0
  -13.5984  -11.8994   -2.9364 C   0  0  0  0  0  0  0  0  0  0  0  0
   -9.8909  -11.5437   -2.9064 C   0  0  0  0  0  0  0  0  0  0  0  0
  -11.2786  -11.2381   -2.8981 O   0  0  0  0  0  0  0  0  0  0  0  0
 22 23  1  0  0  0
 23 16  1  0  0  0
 16 17  2  0  0  0
 17 18  1  0  0  0
 18 19  2  0  0  0
 19 20  1  0  0  0
 20 21  2  0  0  0
 19  1  1  0  0  0
  1  2  1  0  0  0
  2  3  1  0  0  0
  3  4  1  0  0  0
  4  5  1  0  0  0
  4  6  1  0  0  0
  6  7  1  0  0  0
  7  8  1  0  0  0
  8  9  1  0  0  0
  9 10  1  0  0  0
 10 11  1  0  0  0
 11 12  2  0  0  0
  6 13  1  0  0  0
 21 16  1  0  0  0
 13  1  1  0  0  0
 11  6  1  0  0  0
  5 14  1  0  0  0
 10 15  1  0  0  0
M  END
>  <minimizedAffinity>
30.43608

>  <minimizedRMSD>
6.32296

$$$$
MolPort-047-587-387 PubChem-54758653


 23 23  0  0  0  0  0  0  0  0999 V2000
  -10.1179  -14.0079   -6.2469 C   0  0  0  0  0  0  0  0  0  0  0  0
   -8.8321  -14.7766   -6.5854 C   0  0  0  0  0  0  0  0  0  0  0  0
   -7.5986  -14.0139   -6.0918 C   0  0  0  0  0  0  0  0  0  0  0  0
   -7.8422  -12.4992   -6.0608 C   0  0  0  0  0  0  0  0  0  0  0  0
   -8.7383  -12.1216   -7.0817 O   0  0  0  0  0  0  0  0  0  0  0  0
  -10.0432  -12.5450   -6.7251 C   0  0  0  0  0  0  0  0  0  0  0  0
  -10.5916  -11.6908   -5.7658 O   0  0  0  0  0  0  0  0  0  0  0  0
   -7.2550  -14.4562   -4.8142 O   0  0  0  0  0  0  0  0  0  0  0  0
   -8.7317  -14.9772   -7.9646 O   0  0  0  0  0  0  0  0  0  0  0  0
  -10.0646  -11.7368   -4.9527 H   0  0  0  0  0  0  0  0  0  0  0  0
   -7.9864  -14.2775   -4.2027 H   0  0  0  0  0  0  0  0  0  0  0  0
   -8.6914  -14.1186   -8.4141 H   0  0  0  0  0  0  0  0  0  0  0  0
  -13.0712  -16.4418   -6.8713 C   0  0  0  0  0  0  0  0  0  0  0  0
  -11.8913  -15.8139   -6.2224 C   0  0  0  0  0  0  0  0  0  0  0  0
  -11.4342  -16.3013   -5.1545 O   0  0  0  0  0  0  0  0  0  0  0  0
  -11.2902  -14.6610   -6.8141 N   0  0  0  0  0  0  0  0  0  0  0  0
  -11.6839  -14.2931   -7.6380 H   0  0  0  0  0  0  0  0  0  0  0  0
   -6.5260  -11.7643   -6.2302 C   0  0  0  0  0  0  0  0  0  0  0  0
   -6.7048  -10.6599   -7.0663 O   0  0  0  0  0  0  0  0  0  0  0  0
   -5.1419  -10.1454   -7.4764 P   0  0  0  0  0  0  0  0  0  0  0  0
   -5.1945   -9.2632   -8.7041 O   0  0  0  0  0  0  0  0  0  0  0  0
   -4.4960   -9.2625   -6.1872 O   0  0  0  0  0  0  0  0  0  0  0  0
   -4.1504  -11.4827   -7.7826 O   0  0  0  0  0  0  0  0  0  0  0  0
 13 14  1  0  0  0
 14 15  2  0  0  0
 14 16  1  0  0  0
  1 16  1  0  0  0
  1  2  1  0  0  0
  2  3  1  0  0  0
  3  4  1  0  0  0
  4  5  1  0  0  0
  5  6  1  0  0  0
  6  7  1  0  0  0
  4 18  1  0  0  0
 18 19  1  0  0  0
 19 20  1  0  0  0
 20 21  2  0  0  0
 20 22  1  0  0  0
 20 23  1  0  0  0
  3  8  1  0  0  0
  2  9  1  0  0  0
  6  1  1  0  0  0
 16 17  1  0  0  0
  7 10  1  0  0  0
  8 11  1  0  0  0
  9 12  1  0  0  0
M  CHG 1  22  -1
M  CHG 1  23  -1
M  END
>  <minimizedAffinity>
54.20692

>  <minimizedRMSD>
2.46190

$$$$
MolPort-001-739-491 MCULE-7604604932 PubChem-135601234


 23 25  0  0  0  0  0  0  0  0999 V2000
  -12.7236  -15.1962   -5.6573 C   0  0  0  0  0  0  0  0  0  0  0  0
  -11.5792  -15.2263   -6.4748 O   0  0  0  0  0  0  0  0  0  0  0  0
  -11.1604  -16.5716   -6.5420 C   0  0  0  0  0  0  0  0  0  0  0  0
  -12.1745  -17.4673   -5.8378 C   0  0  0  0  0  0  0  0  0  0  0  0
  -13.1209  -17.9631   -6.7402 O   0  0  0  0  0  0  0  0  0  0  0  0
  -12.8483  -16.5146   -4.9059 C   0  0  0  0  0  0  0  0  0  0  0  0
  -12.1350  -16.4784   -3.7034 O   0  0  0  0  0  0  0  0  0  0  0  0
  -13.5562  -17.2229   -7.1914 H   0  0  0  0  0  0  0  0  0  0  0  0
  -11.2078  -16.2576   -3.8840 H   0  0  0  0  0  0  0  0  0  0  0  0
  -10.9116  -16.9820   -7.9245 N   0  0  0  0  0  0  0  0  0  0  0  0
  -11.8028  -17.0575   -8.9482 C   0  0  0  0  0  0  0  0  0  0  0  0
  -11.2258  -17.4577  -10.1171 N   0  0  0  0  0  0  0  0  0  0  0  0
   -9.9337  -17.6244   -9.7796 C   0  0  0  0  0  0  0  0  0  0  0  0
   -9.7457  -17.3381   -8.4739 C   0  0  0  0  0  0  0  0  0  0  0  0
   -8.5330  -17.4155   -7.8734 N   0  0  0  0  0  0  0  0  0  0  0  0
   -7.4664  -17.8046   -8.6366 C   0  0  0  0  0  0  0  0  0  0  0  0
   -7.6320  -18.1027   -9.9663 N   0  0  0  0  0  0  0  0  0  0  0  0
   -8.8582  -18.0195  -10.5624 C   0  0  0  0  0  0  0  0  0  0  0  0
   -8.9997  -18.2931  -11.7829 O   0  0  0  0  0  0  0  0  0  0  0  0
   -6.8530  -18.3814  -10.4999 H   0  0  0  0  0  0  0  0  0  0  0  0
  -12.7065  -13.9683   -4.7535 C   0  0  0  0  0  0  0  0  0  0  0  0
  -14.8448  -12.4430   -4.5989 C   0  0  0  0  0  0  0  0  0  0  0  0
  -14.2080  -13.9035   -3.7289 S   0  0  0  0  0  0  0  0  0  0  0  0
 22 23  1  0  0  0
 23 21  1  0  0  0
 21  1  1  0  0  0
  1  2  1  0  0  0
  2  3  1  0  0  0
  3  4  1  0  0  0
  4  5  1  0  0  0
  4  6  1  0  0  0
  6  7  1  0  0  0
  3 10  1  0  0  0
 10 11  1  0  0  0
 11 12  2  0  0  0
 12 13  1  0  0  0
 13 14  2  0  0  0
 14 15  1  0  0  0
 15 16  2  0  0  0
 16 17  1  0  0  0
 17 18  1  0  0  0
 18 19  2  0  0  0
  6  1  1  0  0  0
 14 10  1  0  0  0
 18 13  1  0  0  0
  5  8  1  0  0  0
  7  9  1  0  0  0
 17 20  1  0  0  0
M  END
>  <minimizedAffinity>
59.36577

>  <minimizedRMSD>
3.61500

$$$$
MolPort-001-646-341 2779272 CSC027974140 MCULE-9333689990 PubChem-4770529 ZINC000002779272 ZINC02779272


 20 21  0  0  0  0  0  0  0  0999 V2000
  -11.1284  -16.6789   -5.6089 N   0  0  0  0  0  0  0  0  0  0  0  0
  -10.5186  -17.3385   -6.7248 C   0  0  0  0  0  0  0  0  0  0  0  0
  -11.0446  -17.3028   -7.8687 O   0  0  0  0  0  0  0  0  0  0  0  0
  -10.6804  -16.7627   -4.7363 H   0  0  0  0  0  0  0  0  0  0  0  0
  -15.2528  -14.3119   -7.0219 C   0  0  0  0  0  0  0  0  0  0  0  0
  -14.1144  -14.8810   -6.2541 C   0  0  0  0  0  0  0  0  0  0  0  0
  -13.1036  -15.6606   -6.7811 C   0  0  0  0  0  0  0  0  0  0  0  0
  -12.3343  -15.9078   -5.6551 C   0  0  0  0  0  0  0  0  0  0  0  0
  -12.8590  -15.3167   -4.5669 N   0  0  0  0  0  0  0  0  0  0  0  0
  -13.9329  -14.7069   -4.9678 O   0  0  0  0  0  0  0  0  0  0  0  0
   -9.2351  -18.0720   -6.5336 C   0  0  0  0  0  0  0  0  0  0  0  0
   -8.0582  -17.1082   -6.4505 C   0  0  0  0  0  0  0  0  0  0  0  0
   -7.6892  -16.6209   -7.7713 N   0  0  0  0  0  0  0  0  0  0  0  0
   -6.5354  -16.9060   -8.4028 C   0  0  0  0  0  0  0  0  0  0  0  0
   -6.5271  -16.2383   -9.6182 C   0  0  0  0  0  0  0  0  0  0  0  0
   -7.7363  -15.5631   -9.6203 C   0  0  0  0  0  0  0  0  0  0  0  0
   -8.4281  -15.7990   -8.4935 N   0  0  0  0  0  0  0  0  0  0  0  0
   -8.2031  -14.7171  -10.6731 N   0  0  0  0  0  0  0  0  0  0  0  0
   -7.4351  -14.5207  -11.7972 O   0  0  0  0  0  0  0  0  0  0  0  0
   -9.3120  -14.1525  -10.5797 O   0  0  0  0  0  0  0  0  0  0  0  0
  5  6  1  0  0  0
  6  7  2  0  0  0
  7  8  1  0  0  0
  8  1  1  0  0  0
  8  9  2  0  0  0
  1  2  1  0  0  0
  2  3  2  0  0  0
  2 11  1  0  0  0
 11 12  1  0  0  0
 12 13  1  0  0  0
 13 14  1  0  0  0
 14 15  2  0  0  0
 15 16  1  0  0  0
 16 17  2  0  0  0
 16 18  1  0  0  0
 17 13  1  0  0  0
 18 19  1  0  0  0
 18 20  2  0  0  0
  9 10  1  0  0  0
 10  6  1  0  0  0
  1  4  1  0  0  0
M  CHG 1  18   1
M  CHG 1  19  -1
M  END
>  <minimizedAffinity>
68.39274

>  <minimizedRMSD>
1.33599

$$$$
MolPort-047-922-582 1940196473


 24 26  0  0  0  0  0  0  0  0999 V2000
  -11.8320  -15.6926   -7.8414 C   0  0  0  0  0  0  0  0  0  0  0  0
  -11.2528  -16.4046   -8.7063 O   0  0  0  0  0  0  0  0  0  0  0  0
  -11.0526  -14.8627   -6.9742 N   0  0  0  0  0  0  0  0  0  0  0  0
  -11.5162  -14.3313   -6.2873 H   0  0  0  0  0  0  0  0  0  0  0  0
  -17.5688  -15.7571   -7.2746 C   0  0  0  0  0  0  0  0  0  0  0  0
  -16.0922  -15.7453   -7.4402 C   0  0  0  0  0  0  0  0  0  0  0  0
  -15.2908  -15.5391   -6.3651 N   0  0  0  0  0  0  0  0  0  0  0  0
  -13.9352  -15.5195   -6.4685 C   0  0  0  0  0  0  0  0  0  0  0  0
  -13.1808  -15.3240   -5.3172 O   0  0  0  0  0  0  0  0  0  0  0  0
  -13.3136  -15.7155   -7.7226 C   0  0  0  0  0  0  0  0  0  0  0  0
  -14.1453  -15.9331   -8.8478 C   0  0  0  0  0  0  0  0  0  0  0  0
  -13.6018  -16.1107  -10.2263 C   0  0  0  0  0  0  0  0  0  0  0  0
  -15.5320  -15.9443   -8.6983 C   0  0  0  0  0  0  0  0  0  0  0  0
  -13.6082  -15.1955   -4.4933 H   0  0  0  0  0  0  0  0  0  0  0  0
   -9.6003  -14.7720   -7.0661 C   0  0  0  0  0  0  0  0  0  0  0  0
   -9.0446  -14.0278   -5.8832 C   0  0  0  0  0  0  0  0  0  0  0  0
   -7.8827  -13.3445   -6.2866 O   0  0  0  0  0  0  0  0  0  0  0  0
   -7.9164  -13.2473   -7.6939 C   0  0  0  0  0  0  0  0  0  0  0  0
   -8.0869  -11.8135   -8.1006 C   0  0  0  0  0  0  0  0  0  0  0  0
   -7.0099  -11.4148   -8.8909 O   0  0  0  0  0  0  0  0  0  0  0  0
   -9.3466  -11.8242   -8.9293 C   0  0  0  0  0  0  0  0  0  0  0  0
  -10.0934  -12.9562   -8.5741 O   0  0  0  0  0  0  0  0  0  0  0  0
   -9.1449  -13.9401   -8.2343 C   0  0  0  0  0  0  0  0  0  0  0  0
   -6.9371  -12.0029   -9.6588 H   0  0  0  0  0  0  0  0  0  0  0  0
  5  6  1  0  0  0
  6  7  2  0  0  0
  7  8  1  0  0  0
  8  9  1  0  0  0
  8 10  2  0  0  0
 10  1  1  0  0  0
  1  2  2  0  0  0
  1  3  1  0  0  0
 15  3  1  0  0  0
 15 16  1  0  0  0
 16 17  1  0  0  0
 18 17  1  0  0  0
 18 19  1  0  0  0
 19 20  1  0  0  0
 19 21  1  0  0  0
 21 22  1  0  0  0
 23 22  1  0  0  0
 10 11  1  0  0  0
 11 12  1  0  0  0
 11 13  2  0  0  0
 13  6  1  0  0  0
 23 15  1  0  0  0
 23 18  1  0  0  0
  9 14  1  0  0  0
  3  4  1  0  0  0
 20 24  1  0  0  0
M  END
>  <minimizedAffinity>
100.81820

>  <minimizedRMSD>
1.38241

$$$$
MolPort-047-798-805 1875251419 MCULE-5905715402


 20 22  0  0  0  0  0  0  0  0999 V2000
  -14.0254  -13.9244   -7.2219 C   0  0  0  0  0  0  0  0  0  0  0  0
  -12.7162  -14.4231   -6.8340 N   0  0  0  0  0  0  0  0  0  0  0  0
  -11.5593  -14.0482   -7.6488 C   0  0  0  0  0  0  0  0  0  0  0  0
  -10.8450  -15.2703   -8.2670 C   0  0  0  0  0  0  0  0  0  0  0  0
  -11.2680  -16.4860   -7.6992 O   0  0  0  0  0  0  0  0  0  0  0  0
  -10.5785  -16.6393   -6.4811 C   0  0  0  0  0  0  0  0  0  0  0  0
  -11.2232  -15.8343   -5.3320 C   0  0  0  0  0  0  0  0  0  0  0  0
  -10.3065  -14.7063   -4.8529 C   0  0  0  0  0  0  0  0  0  0  0  0
   -9.7266  -13.9471   -5.9640 N   0  0  0  0  0  0  0  0  0  0  0  0
  -10.5960  -13.1649   -6.8471 C   0  0  0  0  0  0  0  0  0  0  0  0
   -8.2916  -13.8529   -6.0633 C   0  0  0  0  0  0  0  0  0  0  0  0
   -7.5832  -14.2645   -5.1041 O   0  0  0  0  0  0  0  0  0  0  0  0
  -12.5714  -15.2823   -5.6907 C   0  0  0  0  0  0  0  0  0  0  0  0
  -13.5731  -15.5961   -4.9937 O   0  0  0  0  0  0  0  0  0  0  0  0
   -7.6200  -13.3078   -7.2714 C   0  0  0  0  0  0  0  0  0  0  0  0
   -8.2089  -13.3918   -8.4937 N   0  0  0  0  0  0  0  0  0  0  0  0
   -7.0689  -12.6980   -9.4606 S   0  0  0  0  0  0  0  0  0  0  0  0
   -5.8357  -12.2794   -8.4507 N   0  0  0  0  0  0  0  0  0  0  0  0
   -6.3207  -12.7029   -7.2554 C   0  0  0  0  0  0  0  0  0  0  0  0
   -5.5192  -12.4982   -6.0151 C   0  0  0  0  0  0  0  0  0  0  0  0
  1  2  1  0  0  0
  2  3  1  0  0  0
  3  4  1  0  0  0
  4  5  1  0  0  0
  5  6  1  0  0  0
  7  6  1  0  0  0
  7  8  1  0  0  0
  8  9  1  0  0  0
  9 10  1  0  0  0
  9 11  1  0  0  0
 11 12  2  0  0  0
 11 15  1  0  0  0
 15 16  2  0  0  0
 16 17  1  0  0  0
 17 18  1  0  0  0
 18 19  2  0  0  0
 19 20  1  0  0  0
  7 13  1  0  0  0
 13 14  2  0  0  0
 13  2  1  0  0  0
 10  3  1  0  0  0
 19 15  1  0  0  0
M  END
>  <minimizedAffinity>
113.94578

>  <minimizedRMSD>
1.01894

$$$$
