MolPort-002-501-611 CHEMBL3091862 LN00202244 MCULE-5791274547 PubChem-20013 ZINC05178594


 24 23  0  0  0  0  0  0  0  0999 V2000
   30.8520   -8.0535  -24.8312 C   0  0  0  0  0  0  0  0  0  0  0  0
   30.5703   -7.5862  -26.2430 C   0  0  0  0  0  0  0  0  0  0  0  0
   29.1933   -8.0539  -26.6631 C   0  0  0  0  0  0  0  0  0  0  0  0
   28.2058   -6.9175  -26.5067 C   0  0  0  0  0  0  0  0  0  0  0  0
   26.9055   -7.2803  -27.1956 C   0  0  0  0  0  0  0  0  0  0  0  0
   28.3467   -6.3325  -30.5964 N   0  0  0  0  0  0  0  0  0  0  0  0
   28.1744   -6.4572  -29.2122 N   0  0  0  0  0  0  0  0  0  0  0  0
   27.0698   -7.1792  -28.6707 C   0  0  0  0  0  0  0  0  0  0  0  0
   26.2179   -7.7090  -29.4328 O   0  0  0  0  0  0  0  0  0  0  0  0
   29.1865   -5.7856  -30.7865 H   0  0  0  0  0  0  0  0  0  0  0  0
   27.5362   -5.8620  -30.9989 H   0  0  0  0  0  0  0  0  0  0  0  0
   28.8259   -6.0399  -28.6033 H   0  0  0  0  0  0  0  0  0  0  0  0
   32.3487   -8.0435  -24.5851 C   0  0  0  0  0  0  0  0  0  0  0  0
   32.6586   -7.4452  -23.2212 C   0  0  0  0  0  0  0  0  0  0  0  0
   31.7675   -8.0384  -22.1405 C   0  0  0  0  0  0  0  0  0  0  0  0
   32.4829   -8.0306  -20.7996 C   0  0  0  0  0  0  0  0  0  0  0  0
   32.3405   -6.6745  -20.1274 C   0  0  0  0  0  0  0  0  0  0  0  0
   31.0163   -6.5418  -19.4520 C   0  0  0  0  0  0  0  0  0  0  0  0
   30.3152   -7.5696  -19.2560 O   0  0  0  0  0  0  0  0  0  0  0  0
   30.5587   -5.2633  -19.0121 N   0  0  0  0  0  0  0  0  0  0  0  0
   29.3221   -5.1201  -18.3707 N   0  0  0  0  0  0  0  0  0  0  0  0
   31.1215   -4.4695  -19.1619 H   0  0  0  0  0  0  0  0  0  0  0  0
   28.8704   -6.0315  -18.2957 H   0  0  0  0  0  0  0  0  0  0  0  0
   28.7295   -4.4903  -18.9116 H   0  0  0  0  0  0  0  0  0  0  0  0
  6  7  1  0  0  0
  7  8  1  0  0  0
  8  9  2  0  0  0
  8  5  1  0  0  0
  5  4  1  0  0  0
  4  3  1  0  0  0
  3  2  1  0  0  0
  2  1  1  0  0  0
  1 13  1  0  0  0
 13 14  1  0  0  0
 14 15  1  0  0  0
 15 16  1  0  0  0
 16 17  1  0  0  0
 17 18  1  0  0  0
 18 19  2  0  0  0
 18 20  1  0  0  0
 20 21  1  0  0  0
  6 10  1  0  0  0
  6 11  1  0  0  0
  7 12  1  0  0  0
 20 22  1  0  0  0
 21 23  1  0  0  0
 21 24  1  0  0  0
M  END
>  <minimizedAffinity>
17.76975

>  <minimizedRMSD>
4.99382

$$$$
MolPort-046-702-794 150051424 MCULE-3150834565 PubChem-19047234


 22 21  0  0  0  0  0  0  0  0999 V2000
   27.4205   -4.4563  -21.1301 C   0  0  0  0  0  0  0  0  0  0  0  0
   27.2678   -5.0742  -22.5131 C   0  0  0  0  0  0  0  0  0  0  0  0
   25.8144   -5.0746  -22.9668 C   0  0  0  0  0  0  0  0  0  0  0  0
   25.4541   -6.3769  -23.6629 C   0  0  0  0  0  0  0  0  0  0  0  0
   25.7129   -6.2714  -25.1535 C   0  0  0  0  0  0  0  0  0  0  0  0
   26.9666   -7.0499  -25.5041 C   0  0  0  0  0  0  0  0  0  0  0  0
   27.0281   -7.3088  -26.9987 C   0  0  0  0  0  0  0  0  0  0  0  0
   28.4665   -7.2616  -27.4864 C   0  0  0  0  0  0  0  0  0  0  0  0
   28.6021   -6.2792  -28.5971 C   0  0  0  0  0  0  0  0  0  0  0  0
   28.3284   -6.6149  -29.7793 O   0  0  0  0  0  0  0  0  0  0  0  0
   29.0498   -4.9927  -28.3297 O   0  0  0  0  0  0  0  0  0  0  0  0
   29.2540   -4.7411  -27.4505 H   0  0  0  0  0  0  0  0  0  0  0  0
   28.8523   -4.0055  -20.8750 C   0  0  0  0  0  0  0  0  0  0  0  0
   29.0492   -2.5485  -21.2605 C   0  0  0  0  0  0  0  0  0  0  0  0
   27.8545   -1.7196  -20.8301 C   0  0  0  0  0  0  0  0  0  0  0  0
   28.2075   -0.2470  -20.9069 C   0  0  0  0  0  0  0  0  0  0  0  0
   27.9631    0.4311  -19.5682 C   0  0  0  0  0  0  0  0  0  0  0  0
   26.5621    1.0263  -19.4957 C   0  0  0  0  0  0  0  0  0  0  0  0
   25.9863    1.2802  -20.8895 C   0  0  0  0  0  0  0  0  0  0  0  0
   24.7003    0.6189  -21.1178 N   0  0  0  0  0  0  0  0  0  0  0  0
   23.6658    0.9497  -20.5354 N   0  0  0  0  0  0  0  0  0  0  0  0
   22.6324    1.2787  -19.9550 N   0  0  0  0  0  0  0  0  0  0  0  0
  1  2  1  0  0  0
  1 13  1  0  0  0
  2  3  1  0  0  0
  3  4  1  0  0  0
  4  5  1  0  0  0
  5  6  1  0  0  0
  6  7  1  0  0  0
  7  8  1  0  0  0
  8  9  1  0  0  0
  9 10  2  0  0  0
  9 11  1  0  0  0
 13 14  1  0  0  0
 14 15  1  0  0  0
 15 16  1  0  0  0
 16 17  1  0  0  0
 17 18  1  0  0  0
 18 19  1  0  0  0
 19 20  1  0  0  0
 20 21  2  0  0  0
 21 22  2  0  0  0
 11 12  1  0  0  0
M  CHG 1  21   1
M  CHG 1  22  -1
M  END
>  <minimizedAffinity>
31.75966

>  <minimizedRMSD>
7.19355

$$$$
MolPort-047-772-614


 23 22  0  0  0  0  0  0  0  0999 V2000
   32.8351   -5.2076  -23.7205 C   0  0  0  0  0  0  0  0  0  0  0  0
   32.0749   -4.0463  -23.0914 C   0  0  0  0  0  0  0  0  0  0  0  0
   32.4374   -2.7216  -23.7524 C   0  0  0  0  0  0  0  0  0  0  0  0
   31.2973   -2.2062  -24.6202 C   0  0  0  0  0  0  0  0  0  0  0  0
   30.7584   -0.8778  -24.0891 C   0  0  0  0  0  0  0  0  0  0  0  0
   29.7045   -1.1146  -23.2014 O   0  0  0  0  0  0  0  0  0  0  0  0
   28.9793   -1.5558  -23.6708 H   0  0  0  0  0  0  0  0  0  0  0  0
   31.2134   -0.0540  -26.4316 C   0  0  0  0  0  0  0  0  0  0  0  0
   30.3164    0.0744  -25.2101 C   0  0  0  0  0  0  0  0  0  0  0  0
   30.3513    1.5112  -24.7201 C   0  0  0  0  0  0  0  0  0  0  0  0
   29.0067   -0.2313  -25.5814 O   0  0  0  0  0  0  0  0  0  0  0  0
   28.7232    0.3679  -26.2895 H   0  0  0  0  0  0  0  0  0  0  0  0
   31.8892   -6.1749  -24.4215 C   0  0  0  0  0  0  0  0  0  0  0  0
   32.0827   -7.6009  -23.9203 C   0  0  0  0  0  0  0  0  0  0  0  0
   31.4597   -8.6133  -24.8738 C   0  0  0  0  0  0  0  0  0  0  0  0
   30.3711   -7.9744  -25.7277 C   0  0  0  0  0  0  0  0  0  0  0  0
   29.0128   -8.6137  -25.4650 C   0  0  0  0  0  0  0  0  0  0  0  0
   28.0411   -8.3361  -26.6016 C   0  0  0  0  0  0  0  0  0  0  0  0
   28.7307   -8.5200  -27.9470 C   0  0  0  0  0  0  0  0  0  0  0  0
   28.0948   -7.7092  -29.0335 C   0  0  0  0  0  0  0  0  0  0  0  0
   28.8601   -7.3233  -30.1253 O   0  0  0  0  0  0  0  0  0  0  0  0
   26.8818   -7.3716  -28.9764 O   0  0  0  0  0  0  0  0  0  0  0  0
   29.7626   -7.5701  -30.1756 H   0  0  0  0  0  0  0  0  0  0  0  0
  8  9  1  0  0  0
  9 10  1  0  0  0
  9 11  1  0  0  0
  9  5  1  0  0  0
  5  6  1  0  0  0
  5  4  1  0  0  0
  4  3  1  0  0  0
  3  2  1  0  0  0
  2  1  1  0  0  0
  1 13  1  0  0  0
 13 14  1  0  0  0
 14 15  1  0  0  0
 15 16  1  0  0  0
 16 17  1  0  0  0
 17 18  1  0  0  0
 18 19  1  0  0  0
 19 20  1  0  0  0
 20 21  1  0  0  0
 20 22  2  0  0  0
 11 12  1  0  0  0
  6  7  1  0  0  0
 21 23  1  0  0  0
M  END
>  <minimizedAffinity>
32.10646

>  <minimizedRMSD>
7.30232

$$$$
MolPort-047-916-640 34204427 MCULE-9378247375 PubChem-14006108 ZINC000034204427


 21 20  0  0  0  0  0  0  0  0999 V2000
   30.7118   -3.0102  -24.4219 C   0  0  0  0  0  0  0  0  0  0  0  0
   29.5153   -2.1175  -24.7284 C   0  0  0  0  0  0  0  0  0  0  0  0
   29.8952   -0.6421  -24.6790 C   0  0  0  0  0  0  0  0  0  0  0  0
   30.4136   -0.2499  -23.3040 C   0  0  0  0  0  0  0  0  0  0  0  0
   29.5135    0.8029  -22.6784 C   0  0  0  0  0  0  0  0  0  0  0  0
   30.3072    2.0624  -22.3665 C   0  0  0  0  0  0  0  0  0  0  0  0
   31.8052    1.8266  -22.5191 C   0  0  0  0  0  0  0  0  0  0  0  0
   32.5000    1.7979  -21.1667 C   0  0  0  0  0  0  0  0  0  0  0  0
   33.6564    0.9216  -21.2197 N   0  0  0  0  0  0  0  0  0  0  0  0
   34.0596    0.3712  -20.1963 N   0  0  0  0  0  0  0  0  0  0  0  0
   34.4633   -0.1795  -19.1732 N   0  0  0  0  0  0  0  0  0  0  0  0
   30.2883   -4.4629  -24.2398 C   0  0  0  0  0  0  0  0  0  0  0  0
   29.7178   -5.0385  -25.5267 C   0  0  0  0  0  0  0  0  0  0  0  0
   30.4276   -6.3321  -25.8895 C   0  0  0  0  0  0  0  0  0  0  0  0
   29.4274   -7.3867  -26.3373 C   0  0  0  0  0  0  0  0  0  0  0  0
   28.1935   -6.7482  -26.9555 C   0  0  0  0  0  0  0  0  0  0  0  0
   28.2408   -6.8471  -28.4701 C   0  0  0  0  0  0  0  0  0  0  0  0
   26.8877   -7.1619  -29.0040 C   0  0  0  0  0  0  0  0  0  0  0  0
   26.7327   -7.3687  -30.2352 O   0  0  0  0  0  0  0  0  0  0  0  0
   25.7932   -7.2133  -28.1503 O   0  0  0  0  0  0  0  0  0  0  0  0
   25.9069   -7.0595  -27.2330 H   0  0  0  0  0  0  0  0  0  0  0  0
  1  2  1  0  0  0
  1 12  1  0  0  0
  2  3  1  0  0  0
  3  4  1  0  0  0
  4  5  1  0  0  0
  5  6  1  0  0  0
  6  7  1  0  0  0
  7  8  1  0  0  0
  8  9  1  0  0  0
  9 10  2  0  0  0
 10 11  2  0  0  0
 12 13  1  0  0  0
 13 14  1  0  0  0
 14 15  1  0  0  0
 15 16  1  0  0  0
 16 17  1  0  0  0
 17 18  1  0  0  0
 18 19  2  0  0  0
 18 20  1  0  0  0
 20 21  1  0  0  0
M  CHG 1  10   1
M  CHG 1  11  -1
M  END
>  <minimizedAffinity>
36.21938

>  <minimizedRMSD>
9.25652

$$$$
MolPort-047-853-297 230828170 MCULE-3818253579 PubChem-91667073 ZINC000230828170


 20 19  0  0  0  0  0  0  0  0999 V2000
   29.1041   -5.2202  -19.0708 C   0  0  0  0  0  0  0  0  0  0  0  0
   30.6005   -4.9774  -18.9173 C   0  0  0  0  0  0  0  0  0  0  0  0
   31.3408   -5.2314  -20.2248 C   0  0  0  0  0  0  0  0  0  0  0  0
   32.3791   -6.3363  -20.0693 C   0  0  0  0  0  0  0  0  0  0  0  0
   32.1091   -7.1796  -18.8329 C   0  0  0  0  0  0  0  0  0  0  0  0
   32.7165   -6.5267  -17.6027 C   0  0  0  0  0  0  0  0  0  0  0  0
   31.6623   -6.3449  -16.5208 C   0  0  0  0  0  0  0  0  0  0  0  0
   28.8282   -7.5584  -14.9838 N   0  0  0  0  0  0  0  0  0  0  0  0
   29.8520   -7.5579  -15.6657 N   0  0  0  0  0  0  0  0  0  0  0  0
   30.8767   -7.5583  -16.3482 N   0  0  0  0  0  0  0  0  0  0  0  0
   28.3735   -3.9446  -19.4720 C   0  0  0  0  0  0  0  0  0  0  0  0
   28.4672   -3.7006  -20.9734 C   0  0  0  0  0  0  0  0  0  0  0  0
   29.1297   -2.3622  -21.2779 C   0  0  0  0  0  0  0  0  0  0  0  0
   28.7559   -1.3107  -20.2444 C   0  0  0  0  0  0  0  0  0  0  0  0
   29.4109    0.0158  -20.5785 C   0  0  0  0  0  0  0  0  0  0  0  0
   28.3406    1.0342  -20.9286 C   0  0  0  0  0  0  0  0  0  0  0  0
   27.3540    1.2146  -19.8193 C   0  0  0  0  0  0  0  0  0  0  0  0
   26.1721    0.8136  -19.9766 O   0  0  0  0  0  0  0  0  0  0  0  0
   27.7180    1.8164  -18.6192 O   0  0  0  0  0  0  0  0  0  0  0  0
   28.5962    2.1180  -18.4938 H   0  0  0  0  0  0  0  0  0  0  0  0
  8  9  2  0  0  0
  9 10  2  0  0  0
 10  7  1  0  0  0
  7  6  1  0  0  0
  6  5  1  0  0  0
  5  4  1  0  0  0
  4  3  1  0  0  0
  3  2  1  0  0  0
  2  1  1  0  0  0
  1 11  1  0  0  0
 11 12  1  0  0  0
 12 13  1  0  0  0
 13 14  1  0  0  0
 14 15  1  0  0  0
 15 16  1  0  0  0
 16 17  1  0  0  0
 17 18  2  0  0  0
 17 19  1  0  0  0
 19 20  1  0  0  0
M  CHG 1   8  -1
M  CHG 1   9   1
M  END
>  <minimizedAffinity>
38.05183

>  <minimizedRMSD>
5.55871

$$$$
MolPort-047-916-640 34204427 MCULE-9378247375 PubChem-14006108 ZINC000034204427


 21 20  0  0  0  0  0  0  0  0999 V2000
   29.4137   -2.7736  -21.0544 C   0  0  0  0  0  0  0  0  0  0  0  0
   29.2406   -1.5347  -21.9247 C   0  0  0  0  0  0  0  0  0  0  0  0
   28.8848   -0.3118  -21.0870 C   0  0  0  0  0  0  0  0  0  0  0  0
   30.1332    0.4025  -20.5926 C   0  0  0  0  0  0  0  0  0  0  0  0
   30.7061    1.2878  -21.6871 C   0  0  0  0  0  0  0  0  0  0  0  0
   31.9650    1.9880  -21.1989 C   0  0  0  0  0  0  0  0  0  0  0  0
   33.1886    1.0898  -21.3363 C   0  0  0  0  0  0  0  0  0  0  0  0
   33.7998    1.1982  -22.7246 C   0  0  0  0  0  0  0  0  0  0  0  0
   35.1994    1.5716  -22.6244 N   0  0  0  0  0  0  0  0  0  0  0  0
   35.9493    1.4137  -23.5866 N   0  0  0  0  0  0  0  0  0  0  0  0
   36.6998    1.2561  -24.5483 N   0  0  0  0  0  0  0  0  0  0  0  0
   28.1420   -3.6132  -21.0249 C   0  0  0  0  0  0  0  0  0  0  0  0
   27.6407   -3.9079  -22.4301 C   0  0  0  0  0  0  0  0  0  0  0  0
   26.7073   -5.1069  -22.4195 C   0  0  0  0  0  0  0  0  0  0  0  0
   25.4252   -4.7966  -23.1765 C   0  0  0  0  0  0  0  0  0  0  0  0
   24.3200   -4.3548  -22.2300 C   0  0  0  0  0  0  0  0  0  0  0  0
   24.4481   -2.8760  -21.9097 C   0  0  0  0  0  0  0  0  0  0  0  0
   23.3393   -2.4495  -21.0132 C   0  0  0  0  0  0  0  0  0  0  0  0
   22.7147   -1.3841  -21.2528 O   0  0  0  0  0  0  0  0  0  0  0  0
   23.0017   -3.2156  -19.9048 O   0  0  0  0  0  0  0  0  0  0  0  0
   23.4659   -4.0094  -19.7249 H   0  0  0  0  0  0  0  0  0  0  0  0
  1  2  1  0  0  0
  1 12  1  0  0  0
  2  3  1  0  0  0
  3  4  1  0  0  0
  4  5  1  0  0  0
  5  6  1  0  0  0
  6  7  1  0  0  0
  7  8  1  0  0  0
  8  9  1  0  0  0
  9 10  2  0  0  0
 10 11  2  0  0  0
 12 13  1  0  0  0
 13 14  1  0  0  0
 14 15  1  0  0  0
 15 16  1  0  0  0
 16 17  1  0  0  0
 17 18  1  0  0  0
 18 19  2  0  0  0
 18 20  1  0  0  0
 20 21  1  0  0  0
M  CHG 1  10   1
M  CHG 1  11  -1
M  END
>  <minimizedAffinity>
43.03274

>  <minimizedRMSD>
8.56240

$$$$
MolPort-003-930-601 LN04999860 MCULE-7714289744 PubChem-126503786 PubChem-18433962 PubChem-18941452 PubChem-20231574 PubChem-20524584 PubChem-2733322 PubChem-87473156 PubChem-87497753 PubChem-88059257 PubChem-88175309 PubChem-88704845 PubChem-88743248 ZINC59451250


 18 17  0  0  0  0  0  0  0  0999 V2000
   29.5162   -3.4982  -20.8202 C   0  0  0  0  0  0  0  0  0  0  0  0
   29.9277   -2.0326  -20.8954 C   0  0  0  0  0  0  0  0  0  0  0  0
   29.3839   -1.2434  -19.7145 C   0  0  0  0  0  0  0  0  0  0  0  0
   28.3595   -0.2233  -20.1846 C   0  0  0  0  0  0  0  0  0  0  0  0
   28.5796    0.1116  -21.6487 C   0  0  0  0  0  0  0  0  0  0  0  0
   30.0447    0.4111  -21.9090 C   0  0  0  0  0  0  0  0  0  0  0  0
   29.3626    0.6603  -25.3020 O   0  0  0  0  0  0  0  0  0  0  0  0
   29.8926    0.2592  -24.2581 C   0  0  0  0  0  0  0  0  0  0  0  0
   30.4365   -0.1525  -23.1868 N   0  0  0  0  0  0  0  0  0  0  0  0
   28.8833   -3.8290  -19.4736 C   0  0  0  0  0  0  0  0  0  0  0  0
   29.3991   -5.1520  -18.9289 C   0  0  0  0  0  0  0  0  0  0  0  0
   30.9073   -5.2300  -19.0689 C   0  0  0  0  0  0  0  0  0  0  0  0
   31.4236   -6.4370  -18.3092 C   0  0  0  0  0  0  0  0  0  0  0  0
   31.4460   -6.1535  -16.8182 C   0  0  0  0  0  0  0  0  0  0  0  0
   32.5955   -5.2070  -16.4724 C   0  0  0  0  0  0  0  0  0  0  0  0
   32.3258   -4.3588  -15.3090 N   0  0  0  0  0  0  0  0  0  0  0  0
   31.2737   -3.6564  -15.1561 C   0  0  0  0  0  0  0  0  0  0  0  0
   30.2519   -2.9742  -15.0074 O   0  0  0  0  0  0  0  0  0  0  0  0
  7  8  2  0  0  0
  8  9  2  0  0  0
  9  6  1  0  0  0
  6  5  1  0  0  0
  5  4  1  0  0  0
  4  3  1  0  0  0
  3  2  1  0  0  0
  2  1  1  0  0  0
  1 10  1  0  0  0
 10 11  1  0  0  0
 11 12  1  0  0  0
 12 13  1  0  0  0
 13 14  1  0  0  0
 14 15  1  0  0  0
 15 16  1  0  0  0
 16 17  2  0  0  0
 17 18  2  0  0  0
M  END
>  <minimizedAffinity>
44.28447

>  <minimizedRMSD>
8.85691

$$$$
