MCULE-5436074039


 92101  0  0  0  0  0  0  0  0999 V2000
   26.1225    5.8890  -19.9795 N   0  0  0  0  0
   28.2819    1.6895  -21.1637 N   0  0  0  0  0
   28.4371    4.4100  -20.3693 N   0  0  0  0  0
   30.4534    6.4227  -18.4659 N   0  0  0  0  0
   27.6705   -1.6567  -19.6821 N   0  0  0  0  0
   30.8068   -7.0137  -19.3495 N   0  0  0  0  0
   21.2572   -2.1995  -32.3657 N   0  0  0  0  0
   28.9161   -5.1181  -20.5692 N   0  0  0  0  0
   27.0457    6.4709  -20.9472 C   0  0  0  0  0
   26.3310    6.8393  -22.2586 C   0  0  0  0  0
   25.8558    5.6518  -23.0353 C   0  0  0  0  0
   24.8320    4.8270  -22.5514 C   0  0  0  0  0
   24.5057    3.6474  -23.2249 C   0  0  0  0  0
   25.2064    3.2859  -24.3816 C   0  0  0  0  0
   25.7111    0.9100  -24.3251 C   0  0  0  0  0
   26.3975    1.0698  -23.1115 C   0  0  0  0  0
   27.1250    0.0266  -22.5410 C   0  0  0  0  0
   27.9860    0.2671  -21.3309 C   0  0  0  0  0
   29.4334    2.1778  -20.4687 C   0  0  0  0  0
   29.6889    3.6608  -20.3755 C   0  0  0  0  0
   28.2467    5.5881  -21.1605 C   0  0  0  0  0
   30.4768    3.9782  -19.1098 C   0  0  0  0  0
   31.0719    5.3465  -19.1752 C   0  0  0  0  0
   27.3861   -0.3152  -20.0818 C   0  0  0  0  0
   28.4502   -2.6109  -20.4693 C   0  0  0  0  0
   29.9245   -2.3462  -20.3417 C   0  0  0  0  0
   30.6767   -3.0242  -19.3829 C   0  0  0  0  0
   32.0698   -2.9772  -19.3900 C   0  0  0  0  0
   32.7237   -2.1581  -20.3269 C   0  0  0  0  0
   31.9732   -1.4337  -21.2582 C   0  0  0  0  0
   30.5797   -1.5476  -21.2818 C   0  0  0  0  0
   32.7963   -3.9720  -18.5736 C   0  0  0  0  0
   33.7472   -3.5622  -17.6197 C   0  0  0  0  0
   34.4366   -4.5147  -16.8653 C   0  0  0  0  0
   34.1910   -5.8759  -17.0510 C   0  0  0  0  0
   33.2469   -6.2943  -17.9888 C   0  0  0  0  0
   32.5296   -5.3576  -18.7450 C   0  0  0  0  0
   31.5390   -5.8320  -19.7867 C   0  0  0  0  0
   32.2013   -6.0692  -21.1031 C   0  0  0  0  0
   29.4953   -7.4182  -19.7767 C   0  0  0  0  0
   28.4886   -6.5106  -20.4581 C   0  0  0  0  0
   28.0298   -7.0966  -21.8144 C   0  0  0  0  0
   27.4802   -6.0575  -22.7427 C   0  0  0  0  0
   28.1826   -5.7459  -23.9115 C   0  0  0  0  0
   27.7892   -4.6632  -24.7028 C   0  0  0  0  0
   26.7211   -3.8507  -24.2929 C   0  0  0  0  0
   25.9752   -4.2035  -23.1580 C   0  0  0  0  0
   26.3495   -5.3066  -22.3894 C   0  0  0  0  0
   26.4181   -1.4175  -24.3784 C   0  0  0  0  0
   27.1148   -1.2197  -23.1688 C   0  0  0  0  0
   25.7504   -0.3271  -24.9859 C   0  0  0  0  0
   25.5907   -1.3265  -27.2635 C   0  0  0  0  0
   24.7405   -1.1982  -28.5372 C   0  0  0  0  0
   23.7711   -2.8131  -29.7269 C   0  0  0  0  0
   23.3161   -2.2237  -31.0709 C   0  0  0  0  0
   22.2312   -3.0793  -31.7408 C   0  0  0  0  0
   22.8754   -3.9266  -32.8242 C   0  0  0  0  0
   21.5310   -3.9937  -30.7167 C   0  0  0  0  0
   22.5757   -4.7828  -29.8779 C   0  0  0  0  0
   22.0932   -5.1798  -28.4886 C   0  0  0  0  0
   25.0556    0.1087  -29.2760 C   0  0  0  0  0
   26.5666    0.3212  -29.3859 C   0  0  0  0  0
   27.2098    0.1400  -28.0085 C   0  0  0  0  0
   28.7083    0.3841  -28.0796 C   0  0  0  0  0
   28.0963   -4.0358  -20.1036 C   0  0  0  0  0
   26.1681    4.1562  -24.9153 C   0  0  0  0  0
   26.5012    5.3271  -24.2307 C   0  0  0  0  0
   25.0545    2.0029  -24.9117 O   0  0  0  0  0
   30.2899    1.3620  -20.0317 O   0  0  0  0  0
   29.1113    5.9179  -22.0131 O   0  0  0  0  0
   32.1279    5.5509  -19.8394 O   0  0  0  0  0
   26.5796    0.3698  -19.3957 O   0  0  0  0  0
   34.1098   -2.0881  -20.3705 O   0  0  0  0  0
   33.9990   -2.2126  -17.3999 O   0  0  0  0  0
   34.8860   -6.8145  -16.2999 O   0  0  0  0  0
   33.0565   -6.9819  -21.2362 O   0  0  0  0  0
   31.8758   -5.2620  -22.1865 O   0  0  0  0  0
   29.1459   -8.6077  -19.5481 O   0  0  0  0  0
   27.0579   -8.0800  -21.5858 O   0  0  0  0  0
   26.4153   -2.6796  -24.9901 O   0  0  0  0  0
   25.1524   -0.4205  -26.2499 O   0  0  0  0  0
   25.0158   -2.2807  -29.3772 O   0  0  0  0  0
   20.6977   -3.2347  -29.8826 O   0  0  0  0  0
   23.8747   -4.2149  -29.8337 O   0  0  0  0  0
   24.4483    1.1835  -28.6297 O   0  0  0  0  0
   26.8482    1.5815  -29.9107 O   0  0  0  0  0
   29.2143    0.5511  -26.7905 O   0  0  0  0  0
   26.9723   -1.1702  -27.5354 O   0  0  0  0  0
   27.0453   -4.2789  -19.4468 O   0  0  0  0  0
   25.2771    7.7223  -22.0159 O   0  0  0  0  0
   28.7141   -4.2822  -26.1466 Cl  0  0  0  0  0
   27.0479    3.7344  -26.3753 Cl  0  0  0  0  0
  2 19  1  0  0  0
  3 21  1  0  0  0
  6 40  1  0  0  0
  8 65  1  0  0  0
  9  1  1  0  0  0
  9 10  1  0  0  0
  9 21  1  0  0  0
 10 11  1  0  0  0
 10 90  1  0  0  0
 12 13  1  0  0  0
 14 68  1  0  0  0
 14 66  1  0  0  0
 15 68  1  0  0  0
 15 16  1  0  0  0
 18 17  1  0  0  0
 18  2  1  0  0  0
 18 24  1  0  0  0
 20 19  1  0  0  0
 20  3  1  0  0  0
 20 22  1  0  0  0
 22 23  1  0  0  0
 23  4  1  0  0  0
 24  5  1  0  0  0
 25  5  1  0  0  0
 25 26  1  0  0  0
 25 65  1  0  0  0
 27 28  1  0  0  0
 28 32  1  0  0  0
 29 30  1  0  0  0
 29 73  1  0  0  0
 31 26  1  0  0  0
 33 74  1  0  0  0
 33 34  1  0  0  0
 35 75  1  0  0  0
 35 36  1  0  0  0
 37 32  1  0  0  0
 38 37  1  0  0  0
 38 39  1  0  0  0
 38  6  1  0  0  0
 39 77  1  0  0  0
 41 40  1  0  0  0
 41 42  1  0  0  0
 41  8  1  0  0  0
 42 79  1  0  0  0
 42 43  1  0  0  0
 44 45  1  0  0  0
 45 91  1  0  0  0
 46 47  1  0  0  0
 46 80  1  0  0  0
 48 43  1  0  0  0
 49 80  1  0  0  0
 49 51  1  0  0  0
 50 17  1  0  0  0
 51 81  1  0  0  0
 52 81  1  0  0  0
 52 53  1  0  0  0
 52 88  1  0  0  0
 53 82  1  0  0  0
 53 61  1  0  0  0
 54 82  1  0  0  0
 54 55  1  0  0  0
 54 84  1  0  0  0
 55 56  1  0  0  0
 56 57  1  0  0  0
 56  7  1  0  0  0
 56 58  1  0  0  0
 58 83  1  0  0  0
 58 59  1  0  0  0
 59 60  1  0  0  0
 59 84  1  0  0  0
 61 85  1  0  0  0
 61 62  1  0  0  0
 62 86  1  0  0  0
 62 63  1  0  0  0
 63 64  1  0  0  0
 63 88  1  0  0  0
 64 87  1  0  0  0
 66 92  1  0  0  0
 67 11  1  0  0  0
 11 12  2  0  0  0
 13 14  2  0  0  0
 16 17  2  0  0  0
 19 69  2  0  0  0
 21 70  2  0  0  0
 23 71  2  0  0  0
 24 72  2  0  0  0
 26 27  2  0  0  0
 28 29  2  0  0  0
 30 31  2  0  0  0
 32 33  2  0  0  0
 34 35  2  0  0  0
 36 37  2  0  0  0
 39 76  2  0  0  0
 40 78  2  0  0  0
 43 44  2  0  0  0
 45 46  2  0  0  0
 47 48  2  0  0  0
 49 50  2  0  0  0
 51 15  2  0  0  0
 65 89  2  0  0  0
 66 67  2  0  0  0
M  END
> <rmsd>
0.744555771

$$$$
MCULE-7904224620 CHEMBL1971375 MolPort-044-193-710 NSC308876 NSC308877 PubChem-432447 PubChem-432449 PubChem-74420684


 66 72  0  0  0  0  0  0  0  0999 V2000
   22.9040   -2.5327  -27.0897 C   0  0  0  0  0
   24.4105   -2.4208  -26.9644 C   0  0  0  0  0
   25.0787   -2.4173  -28.3459 C   0  0  0  0  0
   26.5999   -2.3133  -28.1825 C   0  0  0  0  0
   26.9914   -1.2589  -27.1408 C   0  0  0  0  0
   26.1036   -1.3890  -25.8947 C   0  0  0  0  0
   26.4200   -0.9565  -23.6565 C   0  0  0  0  0
   25.0305   -1.4691  -23.2121 C   0  0  0  0  0
   24.9601   -2.9817  -22.9415 C   0  0  0  0  0
   26.3357   -3.6400  -22.7621 C   0  0  0  0  0
   27.5993   -1.8973  -23.3537 C   0  0  0  0  0
   29.8332   -1.9865  -23.0400 C   0  0  0  0  0
   30.2233   -2.2376  -21.5876 C   0  0  0  0  0
   31.4080   -3.2004  -21.4255 C   0  0  0  0  0
   32.6115   -2.7161  -22.2766 C   0  0  0  0  0
   33.8168   -3.6807  -22.2059 C   0  0  0  0  0
   33.9461   -4.4355  -20.8783 C   0  0  0  0  0
   33.3125   -3.7031  -19.6914 C   0  0  0  0  0
   31.8499   -3.2506  -19.9077 C   0  0  0  0  0
   31.7776   -1.8685  -19.2516 C   0  0  0  0  0
   33.1799   -1.3097  -19.1330 C   0  0  0  0  0
   34.1389   -2.4617  -19.3676 C   0  0  0  0  0
   35.1979   -2.6299  -18.2422 C   0  0  0  0  0
   35.9894   -3.9383  -18.3963 C   0  0  0  0  0
   36.2122   -1.4870  -18.3615 C   0  0  0  0  0
   36.9072   -1.4248  -19.7171 C   0  0  0  0  0
   38.3627   -1.1607  -19.5086 C   0  0  0  0  0
   38.9902   -0.0880  -19.9927 C   0  0  0  0  0
   40.4500    0.0663  -19.7465 C   0  0  0  0  0
   38.2760    0.9520  -20.7919 C   0  0  0  0  0
   33.8111   -3.6295  -16.6450 C   0  0  0  0  0
   34.3659   -4.3906  -15.4274 C   0  0  0  0  0
   33.4174   -4.3401  -14.2225 C   0  0  0  0  0
   32.9017   -2.9114  -14.0511 C   0  0  0  0  0
   32.3774   -2.3180  -15.3867 C   0  0  0  0  0
   30.9660   -1.7406  -15.3105 C   0  0  0  0  0
   30.9414   -4.1630  -19.0905 C   0  0  0  0  0
   32.2966   -2.2674  -23.7291 C   0  0  0  0  0
   31.0346   -1.3592  -23.7737 C   0  0  0  0  0
   30.7327   -0.7741  -25.1926 C   0  0  0  0  0
   32.0294   -0.4371  -25.9737 C   0  0  0  0  0
   33.2143   -0.2230  -25.0365 C   0  0  0  0  0
   33.5313   -1.5008  -24.2514 C   0  0  0  0  0
   29.9767    0.5335  -25.0316 C   0  0  0  0  0
   29.8462   -1.7229  -25.9966 C   0  0  0  0  0
   32.0899   -3.4938  -24.6209 C   0  0  0  0  0
   30.9410   -4.5776  -21.9209 C   0  0  0  0  0
   26.2421   -4.8509  -21.8451 C   0  0  0  0  0
   24.7502   -1.2552  -26.2548 O   0  0  0  0  0
   26.4467   -0.3988  -24.9548 O   0  0  0  0  0
   27.2677   -2.7197  -22.2604 O   0  0  0  0  0
   28.7305   -1.1201  -23.0464 O   0  0  0  0  0
   34.6279   -2.5182  -16.9451 O   0  0  0  0  0
   32.4627   -3.2353  -16.4628 O   0  0  0  0  0
   30.0308   -2.7585  -15.0918 O   0  0  0  0  0
   31.9746   -2.8386  -13.0060 O   0  0  0  0  0
   32.3421   -5.2173  -14.4098 O   0  0  0  0  0
   34.6512   -5.7114  -15.7798 O   0  0  0  0  0
   33.4335   -5.7281  -20.9917 O   0  0  0  0  0
   32.3525   -1.4016  -26.9342 O   0  0  0  0  0
   25.8875   -4.4631  -20.5507 O   0  0  0  0  0
   24.2678   -3.6144  -23.9725 O   0  0  0  0  0
   24.6313   -0.7804  -22.0677 O   0  0  0  0  0
   26.8782    0.0219  -27.6892 O   0  0  0  0  0
   27.1197   -3.5543  -27.8127 O   0  0  0  0  0
   24.6124   -1.3475  -29.1150 O   0  0  0  0  0
  2  1  1  0  0  0
  2  3  1  0  0  0
  2 49  1  0  0  0
  3  4  1  0  0  0
  3 66  1  0  0  0
  4  5  1  0  0  0
  4 65  1  0  0  0
  5  6  1  0  0  0
  5 64  1  0  0  0
  6 49  1  0  0  0
  6 50  1  0  0  0
  7 50  1  0  0  0
  7  8  1  0  0  0
  8  9  1  0  0  0
  8 63  1  0  0  0
  9 10  1  0  0  0
  9 62  1  0  0  0
 10 51  1  0  0  0
 10 48  1  0  0  0
 11 51  1  0  0  0
 11 52  1  0  0  0
 11  7  1  0  0  0
 12 52  1  0  0  0
 12 13  1  0  0  0
 13 14  1  0  0  0
 14 15  1  0  0  0
 14 47  1  0  0  0
 15 16  1  0  0  0
 15 38  1  0  0  0
 16 17  1  0  0  0
 17 59  1  0  0  0
 18 17  1  0  0  0
 18 19  1  0  0  0
 19 20  1  0  0  0
 19 37  1  0  0  0
 19 14  1  0  0  0
 20 21  1  0  0  0
 22 21  1  0  0  0
 22 23  1  0  0  0
 22 18  1  0  0  0
 23 24  1  0  0  0
 23 25  1  0  0  0
 23 53  1  0  0  0
 25 26  1  0  0  0
 26 27  1  0  0  0
 29 28  1  0  0  0
 30 28  1  0  0  0
 31 53  1  0  0  0
 31 32  1  0  0  0
 31 54  1  0  0  0
 32 33  1  0  0  0
 32 58  1  0  0  0
 33 34  1  0  0  0
 33 57  1  0  0  0
 34 35  1  0  0  0
 34 56  1  0  0  0
 35 54  1  0  0  0
 35 36  1  0  0  0
 36 55  1  0  0  0
 38 39  1  0  0  0
 38 46  1  0  0  0
 39 40  1  0  0  0
 39 12  1  0  0  0
 40 41  1  0  0  0
 40 44  1  0  0  0
 40 45  1  0  0  0
 41 42  1  0  0  0
 41 60  1  0  0  0
 42 43  1  0  0  0
 43 38  1  0  0  0
 48 61  1  0  0  0
 27 28  2  0  0  0
M  END
> <rmsd>
0.648198962

$$$$
MCULE-5023494686 MolPort-047-605-010


 54 58  0  0  0  0  0  0  0  0999 V2000
   29.9717   -1.6753  -16.3633 C   0  0  0  0  0
   31.7727   -3.3558  -16.1094 C   0  0  0  0  0
   31.0555   -4.0264  -15.1061 C   0  0  0  0  0
   31.5839   -5.1565  -14.4736 C   0  0  0  0  0
   32.8621   -5.5995  -14.8270 C   0  0  0  0  0
   33.5921   -4.9541  -15.8373 C   0  0  0  0  0
   35.4872   -6.5239  -15.5969 C   0  0  0  0  0
   33.0438   -3.8437  -16.5004 C   0  0  0  0  0
   33.2784   -2.4029  -18.5366 C   0  0  0  0  0
   32.6085   -3.2381  -19.6129 C   0  0  0  0  0
   32.1747   -2.3501  -20.7635 C   0  0  0  0  0
   29.7653   -1.8891  -21.3185 C   0  0  0  0  0
   28.4841   -1.1985  -20.9893 C   0  0  0  0  0
   27.7493   -2.1873  -18.8278 C   0  0  0  0  0
   26.5627   -1.5589  -18.1248 C   0  0  0  0  0
   25.7282   -2.4009  -15.8974 C   0  0  0  0  0
   26.0699   -2.8700  -14.5204 C   0  0  0  0  0
   26.1004   -1.7311  -13.5006 C   0  0  0  0  0
   27.2773   -0.8159  -13.6471 C   0  0  0  0  0
   27.1140    0.4382  -14.2472 C   0  0  0  0  0
   28.1979    1.3176  -14.3419 C   0  0  0  0  0
   29.4430    0.9515  -13.8232 C   0  0  0  0  0
   29.6054   -0.2942  -13.2092 C   0  0  0  0  0
   28.5220   -1.1753  -13.1181 C   0  0  0  0  0
   27.3678   -5.0260  -14.3568 C   0  0  0  0  0
   28.6321   -5.7508  -14.6847 C   0  0  0  0  0
   28.3490   -7.0580  -15.4056 C   0  0  0  0  0
   30.8256   -5.8595  -13.4200 C   0  0  0  0  0
   26.7937   -3.0812  -20.9652 C   0  0  0  0  0
   26.3881   -2.9040  -22.3751 C   0  0  0  0  0
   26.1461   -4.0274  -23.1773 C   0  0  0  0  0
   25.7538   -3.8746  -24.5100 C   0  0  0  0  0
   25.5882   -2.5958  -25.0556 C   0  0  0  0  0
   25.8141   -1.4720  -24.2514 C   0  0  0  0  0
   26.2105   -1.6260  -22.9199 C   0  0  0  0  0
   25.1820   -2.4375  -26.4602 C   0  0  0  0  0
   24.3235   -3.5636  -29.6705 C   0  0  0  0  0
   31.2422   -2.2052  -16.7050 O   0  0  0  0  0
   34.8627   -5.4071  -16.2076 O   0  0  0  0  0
   33.8049   -3.2528  -17.5247 O   0  0  0  0  0
   29.8337   -2.6270  -22.3427 O   0  0  0  0  0
   24.5680   -2.5931  -16.3491 O   0  0  0  0  0
   26.3660   -5.6469  -13.9077 O   0  0  0  0  0
   31.4484   -6.3633  -12.4459 O   0  0  0  0  0
   26.4392   -4.1289  -20.3584 O   0  0  0  0  0
   30.8978   -1.7237  -20.4640 N   0  0  0  0  0
   27.5887   -2.0997  -20.2712 N   0  0  0  0  0
   26.7172   -1.7503  -16.6952 N   0  0  0  0  0
   27.3190   -3.6153  -14.5428 N   0  0  0  0  0
   29.4020   -6.0026  -13.4781 N   0  0  0  0  0
   24.9691   -3.4628  -27.3091 N   0  0  0  0  0
   24.6394   -2.8643  -28.4390 N   0  0  0  0  0
   24.6458   -1.5506  -28.3091 N   0  0  0  0  0
   24.9855   -1.2473  -27.0669 N   0  0  0  0  0
  1 38  1  0  0  0
  2 38  1  0  0  0
  3  4  1  0  0  0
  5  6  1  0  0  0
  6 39  1  0  0  0
  7 39  1  0  0  0
  8 40  1  0  0  0
  8  2  1  0  0  0
  9 40  1  0  0  0
  9 10  1  0  0  0
 10 11  1  0  0  0
 11 46  1  0  0  0
 13 12  1  0  0  0
 13 47  1  0  0  0
 14 47  1  0  0  0
 14 15  1  0  0  0
 15 48  1  0  0  0
 17 16  1  0  0  0
 17 18  1  0  0  0
 17 49  1  0  0  0
 18 19  1  0  0  0
 20 21  1  0  0  0
 22 23  1  0  0  0
 24 19  1  0  0  0
 26 25  1  0  0  0
 26 27  1  0  0  0
 26 50  1  0  0  0
 28  4  1  0  0  0
 29 30  1  0  0  0
 31 32  1  0  0  0
 33 34  1  0  0  0
 33 36  1  0  0  0
 35 30  1  0  0  0
 36 54  1  0  0  0
 37 52  1  0  0  0
 46 12  1  0  0  0
 47 29  1  0  0  0
 48 16  1  0  0  0
 49 25  1  0  0  0
 50 28  1  0  0  0
 52 51  1  0  0  0
 52 53  1  0  0  0
  2  3  2  0  0  0
  4  5  2  0  0  0
  6  8  2  0  0  0
 12 41  2  0  0  0
 16 42  2  0  0  0
 19 20  2  0  0  0
 21 22  2  0  0  0
 23 24  2  0  0  0
 25 43  2  0  0  0
 28 44  2  0  0  0
 29 45  2  0  0  0
 30 31  2  0  0  0
 32 33  2  0  0  0
 34 35  2  0  0  0
 36 51  2  0  0  0
 53 54  2  0  0  0
M  END
> <rmsd>
0.787037551

$$$$
MCULE-3148851722 ChemDiv-N039-0006 MolPort-007-980-829 PubChem-5351997


 52 57  0  0  0  0  0  0  0  0999 V2000
   28.2251   -3.5791  -20.6315 C   0  0  0  0  0
   27.9480   -5.1402  -18.6951 C   0  0  0  0  0
   29.6381   -5.8315  -17.1996 C   0  0  0  0  0
   30.7851   -4.9016  -17.5891 C   0  0  0  0  0
   32.3972   -4.1717  -16.2535 C   0  0  0  0  0
   33.2121   -5.4374  -14.5061 C   0  0  0  0  0
   32.9877   -5.7975  -13.0493 C   0  0  0  0  0
   34.6663   -5.0127  -14.7343 C   0  0  0  0  0
   34.8786   -4.6696  -16.2107 C   0  0  0  0  0
   33.7906   -3.7190  -16.7108 C   0  0  0  0  0
   29.6921   -7.2367  -17.8235 C   0  0  0  0  0
   29.2479   -7.2287  -19.2823 C   0  0  0  0  0
   27.9161   -6.4991  -19.4113 C   0  0  0  0  0
   29.1609   -3.0577  -21.5525 C   0  0  0  0  0
   30.6136   -3.0394  -21.2796 C   0  0  0  0  0
   31.5171   -3.1829  -22.3427 C   0  0  0  0  0
   32.8950   -3.1398  -22.1121 C   0  0  0  0  0
   33.3808   -2.9399  -20.8177 C   0  0  0  0  0
   32.4886   -2.7734  -19.7568 C   0  0  0  0  0
   31.1113   -2.8186  -19.9878 C   0  0  0  0  0
   27.4705   -2.5203  -23.0768 C   0  0  0  0  0
   26.4585   -2.9805  -22.2049 C   0  0  0  0  0
   25.1085   -2.9003  -22.6220 C   0  0  0  0  0
   24.7956   -2.3696  -23.8766 C   0  0  0  0  0
   25.8051   -1.9093  -24.7320 C   0  0  0  0  0
   24.1850   -1.2360  -26.4969 C   0  0  0  0  0
   24.0275    0.9600  -25.8234 C   0  0  0  0  0
   23.3855    1.9037  -24.8250 C   0  0  0  0  0
   23.9281    1.5187  -27.2459 C   0  0  0  0  0
   24.6744    0.5703  -28.1816 C   0  0  0  0  0
   24.1891   -0.8662  -27.9872 C   0  0  0  0  0
   27.1374   -1.9905  -24.3259 C   0  0  0  0  0
   26.8524   -3.5069  -20.9583 C   0  0  0  0  0
   28.6822   -4.1649  -19.4358 O   0  0  0  0  0
   28.3697   -5.2126  -17.3395 O   0  0  0  0  0
   31.9663   -5.3015  -16.9613 O   0  0  0  0  0
   32.3367   -4.3870  -14.8561 O   0  0  0  0  0
   34.8834   -5.8298  -16.9896 O   0  0  0  0  0
   34.0404   -2.4267  -16.2487 O   0  0  0  0  0
   35.5458   -6.0276  -14.3477 O   0  0  0  0  0
   30.2101   -6.6208  -20.0944 O   0  0  0  0  0
   26.8903   -7.2851  -18.8848 O   0  0  0  0  0
   30.9533   -7.8201  -17.6852 O   0  0  0  0  0
   34.7482   -2.9105  -20.5854 O   0  0  0  0  0
   28.7463   -2.5749  -22.7206 O   0  0  0  0  0
   24.0669   -3.3395  -21.8116 O   0  0  0  0  0
   25.5139   -1.3656  -25.9867 O   0  0  0  0  0
   23.4234   -0.3139  -25.7376 O   0  0  0  0  0
   24.5020    0.9652  -29.5088 O   0  0  0  0  0
   24.9985   -1.7499  -28.7003 O   0  0  0  0  0
   22.5900    1.6343  -27.6343 O   0  0  0  0  0
   25.9846   -3.8987  -20.1317 O   0  0  0  0  0
  1 34  1  0  0  0
  2 34  1  0  0  0
  2 35  1  0  0  0
  3 35  1  0  0  0
  3  4  1  0  0  0
  3 11  1  0  0  0
  4 36  1  0  0  0
  5 36  1  0  0  0
  5 37  1  0  0  0
  6 37  1  0  0  0
  6  7  1  0  0  0
  6  8  1  0  0  0
  8  9  1  0  0  0
  8 40  1  0  0  0
  9 38  1  0  0  0
  9 10  1  0  0  0
 10 39  1  0  0  0
 10  5  1  0  0  0
 11 12  1  0  0  0
 11 43  1  0  0  0
 12 41  1  0  0  0
 12 13  1  0  0  0
 13 42  1  0  0  0
 13  2  1  0  0  0
 14 15  1  0  0  0
 14 45  1  0  0  0
 16 17  1  0  0  0
 18 19  1  0  0  0
 18 44  1  0  0  0
 20 15  1  0  0  0
 21 45  1  0  0  0
 22 23  1  0  0  0
 22 33  1  0  0  0
 23 46  1  0  0  0
 24 25  1  0  0  0
 25 47  1  0  0  0
 26 47  1  0  0  0
 26 48  1  0  0  0
 27 48  1  0  0  0
 27 28  1  0  0  0
 27 29  1  0  0  0
 29 30  1  0  0  0
 29 51  1  0  0  0
 30 49  1  0  0  0
 30 31  1  0  0  0
 31 50  1  0  0  0
 31 26  1  0  0  0
 32 21  1  0  0  0
 33  1  1  0  0  0
  1 14  2  0  0  0
 15 16  2  0  0  0
 17 18  2  0  0  0
 19 20  2  0  0  0
 21 22  2  0  0  0
 23 24  2  0  0  0
 25 32  2  0  0  0
 33 52  2  0  0  0
M  END
> <rmsd>
0.696080208

$$$$
MCULE-8297132377 CSC088440065


 27 30  0  0  0  0  0  0  0  0999 V2000
   30.1940   -6.9775  -18.3586 C   0  0  0  0  0
   31.2557   -5.9376  -18.2307 C   0  0  0  0  0
   33.1873   -5.1630  -17.1557 C   0  0  0  0  0
   34.8505   -4.0311  -16.5767 C   0  0  0  0  0
   32.3016   -3.8477  -18.9055 C   0  0  0  0  0
   32.3929   -2.6178  -19.7509 C   0  0  0  0  0
   31.2721   -4.7983  -19.0797 C   0  0  0  0  0
   30.2082   -4.5947  -20.1160 C   0  0  0  0  0
   29.0447   -3.8181  -19.5243 C   0  0  0  0  0
   28.0007   -3.5920  -20.5603 C   0  0  0  0  0
   27.4249   -2.4764  -22.7962 C   0  0  0  0  0
   27.8959   -1.6620  -23.8310 C   0  0  0  0  0
   27.0682   -1.3402  -24.9101 C   0  0  0  0  0
   25.7548   -1.8327  -24.9661 C   0  0  0  0  0
   25.2990   -0.7263  -27.1379 C   0  0  0  0  0
   24.1677   -0.6385  -28.1214 C   0  0  0  0  0
   25.9209   -1.5927  -28.1975 C   0  0  0  0  0
   25.2832   -2.6467  -23.9321 C   0  0  0  0  0
   26.1121   -2.9676  -22.8535 C   0  0  0  0  0
   32.2204   -6.1023  -17.2785 N   0  0  0  0  0
   34.1964   -5.1853  -16.2709 N   0  0  0  0  0
   34.2593   -3.3541  -17.5942 N   0  0  0  0  0
   33.2196   -4.0878  -17.9368 N   0  0  0  0  0
   28.3047   -2.7856  -21.7069 N   0  0  0  0  0
   26.8600   -4.1022  -20.4044 O   0  0  0  0  0
   24.9015   -1.5286  -26.0318 O   0  0  0  0  0
   24.8152   -1.4658  -29.0515 O   0  0  0  0  0
  1  2  1  0  0  0
  3 20  1  0  0  0
  4 21  1  0  0  0
  6  5  1  0  0  0
  7  2  1  0  0  0
  8  7  1  0  0  0
  8  9  1  0  0  0
  9 10  1  0  0  0
 10 24  1  0  0  0
 12 13  1  0  0  0
 14 26  1  0  0  0
 14 18  1  0  0  0
 15 26  1  0  0  0
 15 16  1  0  0  0
 16 27  1  0  0  0
 17 27  1  0  0  0
 17 15  1  0  0  0
 19 11  1  0  0  0
 23 22  1  0  0  0
 23  5  1  0  0  0
 23  3  1  0  0  0
 24 11  1  0  0  0
  2 20  2  0  0  0
  3 21  2  0  0  0
  4 22  2  0  0  0
  5  7  2  0  0  0
 10 25  2  0  0  0
 11 12  2  0  0  0
 13 14  2  0  0  0
 18 19  2  0  0  0
M  END
> <rmsd>
0.742256641

$$$$
MCULE-8297132377 CSC088440065


 27 30  0  0  0  0  0  0  0  0999 V2000
   30.1941   -6.9773  -18.3584 C   0  0  0  0  0
   31.2558   -5.9373  -18.2304 C   0  0  0  0  0
   33.1873   -5.1626  -17.1553 C   0  0  0  0  0
   34.8504   -4.0306  -16.5763 C   0  0  0  0  0
   32.3015   -3.8474  -18.9051 C   0  0  0  0  0
   32.3927   -2.6173  -19.7505 C   0  0  0  0  0
   31.2721   -4.7980  -19.0794 C   0  0  0  0  0
   30.2082   -4.5945  -20.1156 C   0  0  0  0  0
   29.0447   -3.8180  -19.5239 C   0  0  0  0  0
   28.0007   -3.5918  -20.5600 C   0  0  0  0  0
   27.4248   -2.4761  -22.7958 C   0  0  0  0  0
   26.1121   -2.9675  -22.8532 C   0  0  0  0  0
   25.2831   -2.6465  -23.9317 C   0  0  0  0  0
   25.7547   -1.8324  -24.9657 C   0  0  0  0  0
   25.2990   -0.7259  -27.1374 C   0  0  0  0  0
   24.1677   -0.6383  -28.1210 C   0  0  0  0  0
   25.9209   -1.5923  -28.1972 C   0  0  0  0  0
   27.0681   -1.3398  -24.9097 C   0  0  0  0  0
   27.8957   -1.6616  -23.8305 C   0  0  0  0  0
   32.2204   -6.1019  -17.2781 N   0  0  0  0  0
   34.1964   -5.1848  -16.2705 N   0  0  0  0  0
   34.2592   -3.3537  -17.5938 N   0  0  0  0  0
   33.2195   -4.0874  -17.9364 N   0  0  0  0  0
   28.3047   -2.7853  -21.7065 N   0  0  0  0  0
   26.8600   -4.1021  -20.4041 O   0  0  0  0  0
   24.9014   -1.5284  -26.0314 O   0  0  0  0  0
   24.8153   -1.4654  -29.0512 O   0  0  0  0  0
  1  2  1  0  0  0
  3 20  1  0  0  0
  4 21  1  0  0  0
  6  5  1  0  0  0
  7  2  1  0  0  0
  8  7  1  0  0  0
  8  9  1  0  0  0
  9 10  1  0  0  0
 10 24  1  0  0  0
 12 13  1  0  0  0
 14 26  1  0  0  0
 14 18  1  0  0  0
 15 26  1  0  0  0
 15 16  1  0  0  0
 16 27  1  0  0  0
 17 27  1  0  0  0
 17 15  1  0  0  0
 19 11  1  0  0  0
 23 22  1  0  0  0
 23  5  1  0  0  0
 23  3  1  0  0  0
 24 11  1  0  0  0
  2 20  2  0  0  0
  3 21  2  0  0  0
  4 22  2  0  0  0
  5  7  2  0  0  0
 10 25  2  0  0  0
 11 12  2  0  0  0
 13 14  2  0  0  0
 18 19  2  0  0  0
M  END
> <rmsd>
0.742043912

$$$$
MCULE-3597025847 MolPort-005-945-109 PubChem-45359838


 55 60  0  0  0  0  0  0  0  0999 V2000
   26.4481    1.6676  -20.4201 C   0  0  0  0  0
   26.2793    2.5593  -21.6081 C   0  0  0  0  0
   25.6803    2.1427  -22.7314 C   0  0  0  0  0
   25.1413    0.7583  -22.9209 C   0  0  0  0  0
   26.2903   -0.2243  -23.1192 C   0  0  0  0  0
   25.8231   -1.6923  -23.2627 C   0  0  0  0  0
   25.0838   -2.0555  -21.9827 C   0  0  0  0  0
   27.0510   -2.6554  -23.4303 C   0  0  0  0  0
   27.9709   -2.1773  -24.5691 C   0  0  0  0  0
   29.2449   -1.6412  -23.9229 C   0  0  0  0  0
   29.4118   -2.5089  -22.6974 C   0  0  0  0  0
   27.9783   -2.6687  -22.2028 C   0  0  0  0  0
   27.9063   -3.7735  -21.1398 C   0  0  0  0  0
   28.7453   -3.3179  -19.9359 C   0  0  0  0  0
   30.1877   -2.9370  -20.3528 C   0  0  0  0  0
   30.2491   -1.9103  -21.5355 C   0  0  0  0  0
   31.7064   -1.6963  -21.9750 C   0  0  0  0  0
   32.6034   -1.3111  -20.8017 C   0  0  0  0  0
   32.5695   -2.4243  -19.7511 C   0  0  0  0  0
   31.1487   -2.6547  -19.1744 C   0  0  0  0  0
   31.1874   -3.8836  -18.2583 C   0  0  0  0  0
   32.2322   -3.7346  -17.1562 C   0  0  0  0  0
   33.6232   -3.5756  -17.7654 C   0  0  0  0  0
   33.7123   -2.3567  -18.7089 C   0  0  0  0  0
   35.0425   -2.4214  -19.4436 C   0  0  0  0  0
   33.6698   -1.0516  -17.9194 C   0  0  0  0  0
   35.4143   -4.6100  -16.9436 C   0  0  0  0  0
   36.8533   -4.2560  -16.5601 C   0  0  0  0  0
   37.7500   -5.4682  -16.8083 C   0  0  0  0  0
   37.1381   -6.7416  -16.2195 C   0  0  0  0  0
   35.6568   -6.8301  -16.6132 C   0  0  0  0  0
   35.0235   -8.0712  -16.0073 C   0  0  0  0  0
   30.6571   -1.4488  -18.3717 C   0  0  0  0  0
   29.6734   -0.5513  -21.1145 C   0  0  0  0  0
   30.0044   -3.8523  -23.1647 C   0  0  0  0  0
   25.3653   -1.4106  -25.5456 C   0  0  0  0  0
   25.0397   -2.4305  -26.6410 C   0  0  0  0  0
   25.5929   -1.9294  -27.9758 C   0  0  0  0  0
   25.2346   -0.4599  -28.2145 C   0  0  0  0  0
   25.5120    0.3523  -26.9420 C   0  0  0  0  0
   25.1234    1.8067  -27.1485 C   0  0  0  0  0
   26.7843    3.9584  -21.5344 C   0  0  0  0  0
   34.5782   -3.5068  -16.7413 O   0  0  0  0  0
   34.9722   -5.6888  -16.1558 O   0  0  0  0  0
   33.7226   -8.2228  -16.4887 O   0  0  0  0  0
   37.8293   -7.8521  -16.7069 O   0  0  0  0  0
   39.0099   -5.2469  -16.2498 O   0  0  0  0  0
   37.3019   -3.1798  -17.3286 O   0  0  0  0  0
   26.5988   -4.0143  -20.7257 O   0  0  0  0  0
   24.8713   -1.8645  -24.3077 O   0  0  0  0  0
   24.7727   -0.1779  -25.8688 O   0  0  0  0  0
   25.5755    2.5725  -26.0745 O   0  0  0  0  0
   25.9990    0.0337  -29.2742 O   0  0  0  0  0
   25.0905   -2.7111  -29.0165 O   0  0  0  0  0
   25.6159   -3.6638  -26.3317 O   0  0  0  0  0
  1  2  1  0  0  0
  4  3  1  0  0  0
  4  5  1  0  0  0
  6  5  1  0  0  0
  6  7  1  0  0  0
  6  8  1  0  0  0
  6 50  1  0  0  0
  8  9  1  0  0  0
  9 10  1  0  0  0
 10 11  1  0  0  0
 11 35  1  0  0  0
 12 11  1  0  0  0
 12 13  1  0  0  0
 12  8  1  0  0  0
 13 14  1  0  0  0
 13 49  1  0  0  0
 15 14  1  0  0  0
 15 16  1  0  0  0
 16 17  1  0  0  0
 16 34  1  0  0  0
 16 11  1  0  0  0
 17 18  1  0  0  0
 19 18  1  0  0  0
 19 20  1  0  0  0
 20 21  1  0  0  0
 20 33  1  0  0  0
 20 15  1  0  0  0
 21 22  1  0  0  0
 22 23  1  0  0  0
 23 24  1  0  0  0
 23 43  1  0  0  0
 24 25  1  0  0  0
 24 26  1  0  0  0
 24 19  1  0  0  0
 27 43  1  0  0  0
 27 28  1  0  0  0
 27 44  1  0  0  0
 28 29  1  0  0  0
 28 48  1  0  0  0
 29 30  1  0  0  0
 29 47  1  0  0  0
 30 31  1  0  0  0
 30 46  1  0  0  0
 31 44  1  0  0  0
 31 32  1  0  0  0
 32 45  1  0  0  0
 36 50  1  0  0  0
 36 37  1  0  0  0
 36 51  1  0  0  0
 37 38  1  0  0  0
 37 55  1  0  0  0
 38 39  1  0  0  0
 38 54  1  0  0  0
 39 40  1  0  0  0
 39 53  1  0  0  0
 40 51  1  0  0  0
 40 41  1  0  0  0
 41 52  1  0  0  0
 42  2  1  0  0  0
  2  3  2  0  0  0
M  END
> <rmsd>
0.841129899

$$$$
MCULE-3597025847 MolPort-005-945-109 PubChem-45359838


 55 60  0  0  0  0  0  0  0  0999 V2000
   26.7254    1.6273  -21.0649 C   0  0  0  0  0
   26.5244    2.2744  -22.3976 C   0  0  0  0  0
   25.8049    1.6962  -23.3682 C   0  0  0  0  0
   25.1514    0.3556  -23.2315 C   0  0  0  0  0
   26.2043   -0.7453  -23.2985 C   0  0  0  0  0
   25.6200   -2.1647  -23.1043 C   0  0  0  0  0
   24.9651   -2.1967  -21.7306 C   0  0  0  0  0
   26.7553   -3.2473  -23.1506 C   0  0  0  0  0
   27.6099   -3.0911  -24.4221 C   0  0  0  0  0
   28.9693   -2.5521  -23.9867 C   0  0  0  0  0
   29.1733   -3.1680  -22.6223 C   0  0  0  0  0
   27.7780   -3.0970  -22.0112 C   0  0  0  0  0
   27.7136   -3.9555  -20.7406 C   0  0  0  0  0
   28.6812   -3.3445  -19.7152 C   0  0  0  0  0
   30.1080   -3.1849  -20.2967 C   0  0  0  0  0
   30.1463   -2.4258  -21.6674 C   0  0  0  0  0
   31.5737   -2.4349  -22.2375 C   0  0  0  0  0
   32.5913   -1.9039  -21.2313 C   0  0  0  0  0
   32.5630   -2.7765  -19.9736 C   0  0  0  0  0
   31.1820   -2.7591  -19.2685 C   0  0  0  0  0
   31.2062   -3.7780  -18.1231 C   0  0  0  0  0
   32.3473   -3.5049  -17.1474 C   0  0  0  0  0
   33.6906   -3.5958  -17.8674 C   0  0  0  0  0
   33.7905   -2.6036  -19.0462 C   0  0  0  0  0
   35.0465   -2.9325  -19.8384 C   0  0  0  0  0
   33.9101   -1.1682  -18.5422 C   0  0  0  0  0
   35.4628   -4.6000  -16.9706 C   0  0  0  0  0
   36.9510   -4.3060  -16.7650 C   0  0  0  0  0
   37.7321   -5.6183  -16.8165 C   0  0  0  0  0
   37.0791   -6.6882  -15.9381 C   0  0  0  0  0
   35.5678   -6.7214  -16.2056 C   0  0  0  0  0
   34.8974   -7.7544  -15.3157 C   0  0  0  0  0
   30.8492   -1.3778  -18.7014 C   0  0  0  0  0
   29.7093   -0.9642  -21.4988 C   0  0  0  0  0
   29.6243   -4.6251  -22.8404 C   0  0  0  0  0
   24.9957   -2.3065  -25.3605 C   0  0  0  0  0
   24.5057   -3.4920  -26.1975 C   0  0  0  0  0
   24.9813   -3.3198  -27.6408 C   0  0  0  0  0
   24.7137   -1.9020  -28.1535 C   0  0  0  0  0
   25.1551   -0.8793  -27.0975 C   0  0  0  0  0
   24.8589    0.5329  -27.5737 C   0  0  0  0  0
   27.1354    3.6092  -22.6482 C   0  0  0  0  0
   34.7300   -3.4086  -16.9454 O   0  0  0  0  0
   35.0096   -5.4553  -15.9494 O   0  0  0  0  0
   33.5532   -7.8829  -15.6679 O   0  0  0  0  0
   37.6437   -7.9310  -16.2304 O   0  0  0  0  0
   39.0470   -5.4029  -16.4007 O   0  0  0  0  0
   37.4120   -3.4499  -17.7673 O   0  0  0  0  0
   26.4309   -3.9909  -20.1996 O   0  0  0  0  0
   24.5744   -2.4572  -24.0255 O   0  0  0  0  0
   24.4707   -1.1157  -25.8912 O   0  0  0  0  0
   25.4540    1.4550  -26.7135 O   0  0  0  0  0
   25.4214   -1.7009  -29.3407 O   0  0  0  0  0
   24.3378   -4.2463  -28.4618 O   0  0  0  0  0
   25.0132   -4.6846  -25.6791 O   0  0  0  0  0
  1  2  1  0  0  0
  4  3  1  0  0  0
  4  5  1  0  0  0
  6  5  1  0  0  0
  6  7  1  0  0  0
  6  8  1  0  0  0
  6 50  1  0  0  0
  8  9  1  0  0  0
  9 10  1  0  0  0
 10 11  1  0  0  0
 11 35  1  0  0  0
 12 11  1  0  0  0
 12 13  1  0  0  0
 12  8  1  0  0  0
 13 14  1  0  0  0
 13 49  1  0  0  0
 15 14  1  0  0  0
 15 16  1  0  0  0
 16 17  1  0  0  0
 16 34  1  0  0  0
 16 11  1  0  0  0
 17 18  1  0  0  0
 19 18  1  0  0  0
 19 20  1  0  0  0
 20 21  1  0  0  0
 20 33  1  0  0  0
 20 15  1  0  0  0
 21 22  1  0  0  0
 22 23  1  0  0  0
 23 24  1  0  0  0
 23 43  1  0  0  0
 24 25  1  0  0  0
 24 26  1  0  0  0
 24 19  1  0  0  0
 27 43  1  0  0  0
 27 28  1  0  0  0
 27 44  1  0  0  0
 28 29  1  0  0  0
 28 48  1  0  0  0
 29 30  1  0  0  0
 29 47  1  0  0  0
 30 31  1  0  0  0
 30 46  1  0  0  0
 31 44  1  0  0  0
 31 32  1  0  0  0
 32 45  1  0  0  0
 36 50  1  0  0  0
 36 37  1  0  0  0
 36 51  1  0  0  0
 37 38  1  0  0  0
 37 55  1  0  0  0
 38 39  1  0  0  0
 38 54  1  0  0  0
 39 40  1  0  0  0
 39 53  1  0  0  0
 40 51  1  0  0  0
 40 41  1  0  0  0
 41 52  1  0  0  0
 42  2  1  0  0  0
  2  3  2  0  0  0
M  END
> <rmsd>
0.792230368

$$$$
MCULE-8858985465 MolPort-047-134-022 PubChem-131752575


 56 62  0  0  0  0  0  0  0  0999 V2000
   29.9040   -5.9705  -24.0027 C   0  0  0  0  0
   30.5110   -5.7911  -22.6182 C   0  0  0  0  0
   31.9647   -6.2527  -22.4807 C   0  0  0  0  0
   32.9328   -6.3030  -20.1935 C   0  0  0  0  0
   33.4139   -5.5673  -18.9906 C   0  0  0  0  0
   34.0236   -6.3142  -17.9726 C   0  0  0  0  0
   34.5104   -5.7027  -16.8188 C   0  0  0  0  0
   34.3961   -4.3203  -16.6591 C   0  0  0  0  0
   33.7867   -3.5484  -17.6539 C   0  0  0  0  0
   33.2865   -4.1580  -18.8217 C   0  0  0  0  0
   32.6288   -3.3081  -19.8437 C   0  0  0  0  0
   33.4486   -2.5945  -20.7421 C   0  0  0  0  0
   32.8984   -1.9772  -21.8707 C   0  0  0  0  0
   31.5343   -2.1000  -22.1411 C   0  0  0  0  0
   30.6999   -2.7598  -21.2253 C   0  0  0  0  0
   31.2206   -3.3298  -20.0450 C   0  0  0  0  0
   30.2983   -3.9451  -19.1604 C   0  0  0  0  0
   28.5188   -3.5932  -20.6379 C   0  0  0  0  0
   27.1803   -3.8207  -20.9601 C   0  0  0  0  0
   26.6898   -3.4559  -22.2180 C   0  0  0  0  0
   27.5264   -2.8197  -23.1579 C   0  0  0  0  0
   27.0204   -2.6592  -24.5421 C   0  0  0  0  0
   26.1621   -1.5766  -24.8216 C   0  0  0  0  0
   25.6359   -1.4041  -26.1060 C   0  0  0  0  0
   25.9558   -2.3090  -27.1193 C   0  0  0  0  0
   26.8008   -3.3843  -26.8524 C   0  0  0  0  0
   27.3462   -3.5855  -25.5759 C   0  0  0  0  0
   28.2496   -4.7582  -25.3928 C   0  0  0  0  0
   28.8588   -2.4770  -22.7935 C   0  0  0  0  0
   29.3486   -2.9157  -21.5456 C   0  0  0  0  0
   29.7618   -1.7774  -23.6346 C   0  0  0  0  0
   32.8055   -5.9232  -23.7195 C   0  0  0  0  0
   34.1639   -6.6181  -23.6780 C   0  0  0  0  0
   34.7732   -6.6378  -25.0475 C   0  0  0  0  0
   32.5260   -5.6137  -21.3378 O   0  0  0  0  0
   32.9010   -7.5649  -20.1832 O   0  0  0  0  0
   30.6668   -4.4038  -18.0470 O   0  0  0  0  0
   29.0130   -4.0451  -19.4899 O   0  0  0  0  0
   28.4605   -5.5393  -26.3620 O   0  0  0  0  0
   28.8889   -4.9906  -24.1743 O   0  0  0  0  0
   25.4363   -2.1449  -28.3973 O   0  0  0  0  0
   24.7926   -0.3313  -26.3738 O   0  0  0  0  0
   25.8324   -0.6662  -23.8214 O   0  0  0  0  0
   29.3866   -1.2889  -24.7330 O   0  0  0  0  0
   31.0335   -1.6201  -23.2750 O   0  0  0  0  0
   25.3709   -3.7582  -22.5456 O   0  0  0  0  0
   26.3438   -4.4522  -20.0459 O   0  0  0  0  0
   33.7208   -1.2825  -22.7512 O   0  0  0  0  0
   34.8239   -2.5305  -20.5362 O   0  0  0  0  0
   33.6706   -2.1726  -17.4754 O   0  0  0  0  0
   34.8856   -3.7115  -15.5086 O   0  0  0  0  0
   35.1096   -6.4764  -15.8327 O   0  0  0  0  0
   35.8592   -6.1247  -25.2682 O   0  0  0  0  0
   35.0153   -5.9940  -22.7597 O   0  0  0  0  0
   32.9530   -4.5410  -23.8749 O   0  0  0  0  0
   29.7176   -6.4351  -21.6688 O   0  0  0  0  0
  1  2  1  0  0  0
  1 40  1  0  0  0
  2  3  1  0  0  0
  2 56  1  0  0  0
  3 35  1  0  0  0
  3 32  1  0  0  0
  4 35  1  0  0  0
  4  5  1  0  0  0
  6  7  1  0  0  0
  7 52  1  0  0  0
  8  9  1  0  0  0
  8 51  1  0  0  0
  9 50  1  0  0  0
 10 11  1  0  0  0
 10  5  1  0  0  0
 12 13  1  0  0  0
 12 49  1  0  0  0
 13 48  1  0  0  0
 14 15  1  0  0  0
 14 45  1  0  0  0
 16 17  1  0  0  0
 16 11  1  0  0  0
 17 38  1  0  0  0
 18 38  1  0  0  0
 19 20  1  0  0  0
 19 47  1  0  0  0
 20 46  1  0  0  0
 21 22  1  0  0  0
 21 29  1  0  0  0
 23 24  1  0  0  0
 23 43  1  0  0  0
 24 42  1  0  0  0
 25 26  1  0  0  0
 25 41  1  0  0  0
 27 28  1  0  0  0
 27 22  1  0  0  0
 28 40  1  0  0  0
 29 31  1  0  0  0
 30 15  1  0  0  0
 30 18  1  0  0  0
 31 45  1  0  0  0
 32 33  1  0  0  0
 32 55  1  0  0  0
 33 34  1  0  0  0
 33 54  1  0  0  0
  4 36  2  0  0  0
  5  6  2  0  0  0
  7  8  2  0  0  0
  9 10  2  0  0  0
 11 12  2  0  0  0
 13 14  2  0  0  0
 15 16  2  0  0  0
 17 37  2  0  0  0
 18 19  2  0  0  0
 20 21  2  0  0  0
 22 23  2  0  0  0
 24 25  2  0  0  0
 26 27  2  0  0  0
 28 39  2  0  0  0
 29 30  2  0  0  0
 31 44  2  0  0  0
 34 53  2  0  0  0
M  END
> <rmsd>
0.737380445

$$$$
MCULE-8858985465 MolPort-047-134-022 PubChem-131752575


 56 62  0  0  0  0  0  0  0  0999 V2000
   31.6279   -6.4919  -22.2525 C   0  0  0  0  0
   30.7595   -5.5197  -23.0388 C   0  0  0  0  0
   29.5480   -6.1465  -23.7349 C   0  0  0  0  0
   28.2627   -4.7082  -25.3002 C   0  0  0  0  0
   27.3549   -3.5475  -25.5198 C   0  0  0  0  0
   26.8628   -3.3434  -26.8167 C   0  0  0  0  0
   26.0003   -2.2875  -27.1057 C   0  0  0  0  0
   25.6096   -1.4075  -26.0944 C   0  0  0  0  0
   26.0888   -1.5805  -24.7917 C   0  0  0  0  0
   26.9655   -2.6418  -24.4906 C   0  0  0  0  0
   27.4678   -2.7793  -23.1020 C   0  0  0  0  0
   26.6291   -3.3944  -22.1498 C   0  0  0  0  0
   27.1297   -3.7727  -20.8994 C   0  0  0  0  0
   28.4799   -3.5832  -20.5989 C   0  0  0  0  0
   29.3108   -2.9218  -21.5167 C   0  0  0  0  0
   28.8122   -2.4683  -22.7557 C   0  0  0  0  0
   29.7149   -1.7782  -23.6046 C   0  0  0  0  0
   31.5034   -2.1485  -22.1426 C   0  0  0  0  0
   32.8745   -2.0626  -21.8981 C   0  0  0  0  0
   33.4285   -2.6934  -20.7797 C   0  0  0  0  0
   32.6078   -3.3868  -19.8665 C   0  0  0  0  0
   33.2678   -4.2172  -18.8309 C   0  0  0  0  0
   33.7443   -3.5833  -17.6656 C   0  0  0  0  0
   34.4011   -4.3223  -16.6763 C   0  0  0  0  0
   34.5924   -5.6950  -16.8410 C   0  0  0  0  0
   34.1280   -6.3305  -17.9907 C   0  0  0  0  0
   33.4646   -5.6191  -19.0013 C   0  0  0  0  0
   32.9941   -6.3906  -20.1880 C   0  0  0  0  0
   31.1958   -3.3779  -20.0445 C   0  0  0  0  0
   30.6692   -2.7929  -21.2149 C   0  0  0  0  0
   30.2747   -3.9836  -19.1517 C   0  0  0  0  0
   28.8806   -7.2347  -22.8861 C   0  0  0  0  0
   27.8532   -8.0251  -23.6921 C   0  0  0  0  0
   27.5410   -9.3176  -22.9999 C   0  0  0  0  0
   28.6094   -5.1103  -24.0088 O   0  0  0  0  0
   28.7173   -5.3426  -26.2924 O   0  0  0  0  0
   29.3311   -1.2678  -24.6900 O   0  0  0  0  0
   30.9950   -1.6502  -23.2649 O   0  0  0  0  0
   33.2363   -7.6275  -20.2628 O   0  0  0  0  0
   32.2648   -5.7730  -21.2048 O   0  0  0  0  0
   35.2447   -6.4356  -15.8632 O   0  0  0  0  0
   34.8650   -3.6894  -15.5282 O   0  0  0  0  0
   33.5626   -2.2147  -17.4871 O   0  0  0  0  0
   30.6519   -4.4645  -18.0506 O   0  0  0  0  0
   28.9823   -4.0536  -19.4619 O   0  0  0  0  0
   34.8079   -2.6572  -20.5942 O   0  0  0  0  0
   33.6981   -1.3870  -22.7923 O   0  0  0  0  0
   26.2917   -4.3843  -19.9731 O   0  0  0  0  0
   25.3000   -3.6687  -22.4601 O   0  0  0  0  0
   25.6987   -0.6886  -23.7965 O   0  0  0  0  0
   24.7463   -0.3564  -26.3840 O   0  0  0  0  0
   25.5327   -2.1186  -28.4029 O   0  0  0  0  0
   26.4033   -9.5955  -22.6537 O   0  0  0  0  0
   26.6916   -7.2718  -23.8944 O   0  0  0  0  0
   28.3042   -6.6912  -21.7332 O   0  0  0  0  0
   31.5412   -4.8376  -23.9711 O   0  0  0  0  0
  1  2  1  0  0  0
  1 40  1  0  0  0
  2  3  1  0  0  0
  2 56  1  0  0  0
  3 35  1  0  0  0
  3 32  1  0  0  0
  4 35  1  0  0  0
  4  5  1  0  0  0
  6  7  1  0  0  0
  7 52  1  0  0  0
  8  9  1  0  0  0
  8 51  1  0  0  0
  9 50  1  0  0  0
 10 11  1  0  0  0
 10  5  1  0  0  0
 12 13  1  0  0  0
 12 49  1  0  0  0
 13 48  1  0  0  0
 14 15  1  0  0  0
 14 45  1  0  0  0
 16 17  1  0  0  0
 16 11  1  0  0  0
 17 38  1  0  0  0
 18 38  1  0  0  0
 19 20  1  0  0  0
 19 47  1  0  0  0
 20 46  1  0  0  0
 21 22  1  0  0  0
 21 29  1  0  0  0
 23 24  1  0  0  0
 23 43  1  0  0  0
 24 42  1  0  0  0
 25 26  1  0  0  0
 25 41  1  0  0  0
 27 28  1  0  0  0
 27 22  1  0  0  0
 28 40  1  0  0  0
 29 31  1  0  0  0
 30 15  1  0  0  0
 30 18  1  0  0  0
 31 45  1  0  0  0
 32 33  1  0  0  0
 32 55  1  0  0  0
 33 34  1  0  0  0
 33 54  1  0  0  0
  4 36  2  0  0  0
  5  6  2  0  0  0
  7  8  2  0  0  0
  9 10  2  0  0  0
 11 12  2  0  0  0
 13 14  2  0  0  0
 15 16  2  0  0  0
 17 37  2  0  0  0
 18 19  2  0  0  0
 20 21  2  0  0  0
 22 23  2  0  0  0
 24 25  2  0  0  0
 26 27  2  0  0  0
 28 39  2  0  0  0
 29 30  2  0  0  0
 31 44  2  0  0  0
 34 53  2  0  0  0
M  END
> <rmsd>
0.779410243

$$$$
MCULE-8858985465 MolPort-047-134-022 PubChem-131752575


 56 62  0  0  0  0  0  0  0  0999 V2000
   31.7464   -6.2646  -22.4193 C   0  0  0  0  0
   30.3158   -5.7659  -22.5522 C   0  0  0  0  0
   29.6958   -6.0968  -23.9135 C   0  0  0  0  0
   28.5907   -4.4172  -25.3527 C   0  0  0  0  0
   27.5378   -3.3922  -25.5551 C   0  0  0  0  0
   27.0828   -3.1723  -26.8617 C   0  0  0  0  0
   26.0967   -2.2247  -27.1301 C   0  0  0  0  0
   25.5508   -1.4698  -26.0892 C   0  0  0  0  0
   26.0004   -1.6570  -24.7771 C   0  0  0  0  0
   26.9964   -2.6140  -24.4961 C   0  0  0  0  0
   27.4932   -2.7555  -23.1053 C   0  0  0  0  0
   26.6563   -3.3791  -22.1557 C   0  0  0  0  0
   27.1478   -3.7281  -20.8935 C   0  0  0  0  0
   28.4898   -3.5084  -20.5799 C   0  0  0  0  0
   29.3211   -2.8507  -21.5004 C   0  0  0  0  0
   28.8278   -2.4164  -22.7470 C   0  0  0  0  0
   29.7237   -1.7013  -23.5839 C   0  0  0  0  0
   31.5103   -2.0614  -22.1186 C   0  0  0  0  0
   32.8798   -1.9643  -21.8675 C   0  0  0  0  0
   33.4331   -2.5928  -20.7472 C   0  0  0  0  0
   32.6114   -3.2901  -19.8378 C   0  0  0  0  0
   33.2654   -4.1562  -18.8296 C   0  0  0  0  0
   33.8067   -3.5592  -17.6734 C   0  0  0  0  0
   34.4221   -4.3455  -16.6938 C   0  0  0  0  0
   34.5020   -5.7297  -16.8575 C   0  0  0  0  0
   33.9735   -6.3283  -17.9996 C   0  0  0  0  0
   33.3558   -5.5676  -19.0030 C   0  0  0  0  0
   32.8242   -6.2969  -20.1905 C   0  0  0  0  0
   31.2007   -3.2819  -20.0171 C   0  0  0  0  0
   30.6766   -2.7091  -21.1933 C   0  0  0  0  0
   30.2781   -3.8726  -19.1159 C   0  0  0  0  0
   29.1694   -7.5376  -23.9896 C   0  0  0  0  0
   28.4865   -7.8116  -25.3310 C   0  0  0  0  0
   27.7198   -9.0933  -25.2904 C   0  0  0  0  0
   28.6404   -5.1730  -24.1756 O   0  0  0  0  0
   29.4276   -4.6334  -26.2723 O   0  0  0  0  0
   29.3347   -1.1740  -24.6593 O   0  0  0  0  0
   31.0014   -1.5626  -23.2400 O   0  0  0  0  0
   32.7830   -7.5587  -20.1752 O   0  0  0  0  0
   32.3729   -5.6103  -21.3217 O   0  0  0  0  0
   35.1075   -6.5178  -15.8870 O   0  0  0  0  0
   34.9521   -3.7493  -15.5549 O   0  0  0  0  0
   33.7262   -2.1814  -17.4914 O   0  0  0  0  0
   30.6519   -4.3263  -18.0023 O   0  0  0  0  0
   28.9877   -3.9547  -19.4311 O   0  0  0  0  0
   34.8121   -2.5555  -20.5598 O   0  0  0  0  0
   33.7025   -1.2821  -22.7574 O   0  0  0  0  0
   26.3103   -4.3420  -19.9683 O   0  0  0  0  0
   25.3382   -3.6900  -22.4784 O   0  0  0  0  0
   25.4660   -0.8776  -23.7550 O   0  0  0  0  0
   24.5657   -0.5260  -26.3586 O   0  0  0  0  0
   25.6628   -2.0366  -28.4364 O   0  0  0  0  0
   26.7779   -9.2267  -24.5258 O   0  0  0  0  0
   29.4288   -7.8613  -26.3605 O   0  0  0  0  0
   30.2074   -8.4513  -23.7820 O   0  0  0  0  0
   29.5333   -6.2625  -21.5063 O   0  0  0  0  0
  1  2  1  0  0  0
  1 40  1  0  0  0
  2  3  1  0  0  0
  2 56  1  0  0  0
  3 35  1  0  0  0
  3 32  1  0  0  0
  4 35  1  0  0  0
  4  5  1  0  0  0
  6  7  1  0  0  0
  7 52  1  0  0  0
  8  9  1  0  0  0
  8 51  1  0  0  0
  9 50  1  0  0  0
 10 11  1  0  0  0
 10  5  1  0  0  0
 12 13  1  0  0  0
 12 49  1  0  0  0
 13 48  1  0  0  0
 14 15  1  0  0  0
 14 45  1  0  0  0
 16 17  1  0  0  0
 16 11  1  0  0  0
 17 38  1  0  0  0
 18 38  1  0  0  0
 19 20  1  0  0  0
 19 47  1  0  0  0
 20 46  1  0  0  0
 21 22  1  0  0  0
 21 29  1  0  0  0
 23 24  1  0  0  0
 23 43  1  0  0  0
 24 42  1  0  0  0
 25 26  1  0  0  0
 25 41  1  0  0  0
 27 28  1  0  0  0
 27 22  1  0  0  0
 28 40  1  0  0  0
 29 31  1  0  0  0
 30 15  1  0  0  0
 30 18  1  0  0  0
 31 45  1  0  0  0
 32 33  1  0  0  0
 32 55  1  0  0  0
 33 34  1  0  0  0
 33 54  1  0  0  0
  4 36  2  0  0  0
  5  6  2  0  0  0
  7  8  2  0  0  0
  9 10  2  0  0  0
 11 12  2  0  0  0
 13 14  2  0  0  0
 15 16  2  0  0  0
 17 37  2  0  0  0
 18 19  2  0  0  0
 20 21  2  0  0  0
 22 23  2  0  0  0
 24 25  2  0  0  0
 26 27  2  0  0  0
 28 39  2  0  0  0
 29 30  2  0  0  0
 31 44  2  0  0  0
 34 53  2  0  0  0
M  END
> <rmsd>
0.747186899

$$$$
MCULE-8858985465 MolPort-047-134-022 PubChem-131752575


 56 62  0  0  0  0  0  0  0  0999 V2000
   29.7998   -5.9646  -23.8071 C   0  0  0  0  0
   30.9561   -5.3164  -23.0616 C   0  0  0  0  0
   31.8994   -6.3407  -22.4229 C   0  0  0  0  0
   32.5849   -6.2680  -20.0485 C   0  0  0  0  0
   33.2213   -5.5513  -18.9164 C   0  0  0  0  0
   33.8070   -6.3207  -17.9027 C   0  0  0  0  0
   34.4225   -5.7182  -16.8069 C   0  0  0  0  0
   34.4555   -4.3256  -16.7021 C   0  0  0  0  0
   33.8622   -3.5340  -17.6919 C   0  0  0  0  0
   33.2386   -4.1345  -18.8043 C   0  0  0  0  0
   32.5708   -3.2746  -19.8121 C   0  0  0  0  0
   33.3787   -2.5274  -20.6953 C   0  0  0  0  0
   32.8140   -1.8698  -21.7931 C   0  0  0  0  0
   31.4484   -1.9902  -22.0544 C   0  0  0  0  0
   30.6280   -2.6955  -21.1598 C   0  0  0  0  0
   31.1609   -3.2983  -20.0028 C   0  0  0  0  0
   30.2452   -3.9319  -19.1229 C   0  0  0  0  0
   28.4610   -3.5791  -20.5929 C   0  0  0  0  0
   27.1259   -3.8191  -20.9211 C   0  0  0  0  0
   26.6312   -3.4334  -22.1712 C   0  0  0  0  0
   27.4590   -2.7598  -23.0928 C   0  0  0  0  0
   26.9781   -2.6156  -24.4864 C   0  0  0  0  0
   26.0509   -1.5958  -24.7804 C   0  0  0  0  0
   25.5823   -1.4216  -26.0868 C   0  0  0  0  0
   26.0335   -2.2594  -27.1084 C   0  0  0  0  0
   26.9469   -3.2733  -26.8263 C   0  0  0  0  0
   27.4312   -3.4783  -25.5261 C   0  0  0  0  0
   28.4026   -4.5913  -25.3211 C   0  0  0  0  0
   28.7808   -2.3963  -22.7145 C   0  0  0  0  0
   29.2792   -2.8641  -21.4820 C   0  0  0  0  0
   29.6644   -1.6410  -23.5273 C   0  0  0  0  0
   32.9089   -6.9209  -23.4246 C   0  0  0  0  0
   33.8857   -7.8791  -22.7402 C   0  0  0  0  0
   35.0361   -8.2029  -23.6368 C   0  0  0  0  0
   32.5856   -5.7203  -21.3365 O   0  0  0  0  0
   32.0706   -7.4034  -19.8502 O   0  0  0  0  0
   30.6171   -4.3900  -18.0104 O   0  0  0  0  0
   28.9615   -4.0451  -19.4538 O   0  0  0  0  0
   28.8870   -5.1836  -26.3254 O   0  0  0  0  0
   28.7853   -4.9935  -24.0379 O   0  0  0  0  0
   25.5763   -2.0897  -28.4091 O   0  0  0  0  0
   24.6690   -0.4118  -26.3693 O   0  0  0  0  0
   25.5991   -0.7464  -23.7743 O   0  0  0  0  0
   29.2730   -1.1109  -24.6005 O   0  0  0  0  0
   30.9341   -1.4726  -23.1656 O   0  0  0  0  0
   25.3207   -3.7569  -22.5119 O   0  0  0  0  0
   26.2988   -4.4850  -20.0228 O   0  0  0  0  0
   33.6235   -1.1370  -22.6545 O   0  0  0  0  0
   34.7566   -2.4675  -20.5059 O   0  0  0  0  0
   33.8795   -2.1484  -17.5588 O   0  0  0  0  0
   35.0717   -3.7262  -15.6089 O   0  0  0  0  0
   35.0001   -6.5104  -15.8227 O   0  0  0  0  0
   35.8005   -7.3250  -24.0037 O   0  0  0  0  0
   33.2364   -9.0577  -22.3664 O   0  0  0  0  0
   32.2454   -7.5736  -24.4683 O   0  0  0  0  0
   31.6507   -4.4498  -23.9097 O   0  0  0  0  0
  1  2  1  0  0  0
  1 40  1  0  0  0
  2  3  1  0  0  0
  2 56  1  0  0  0
  3 35  1  0  0  0
  3 32  1  0  0  0
  4 35  1  0  0  0
  4  5  1  0  0  0
  6  7  1  0  0  0
  7 52  1  0  0  0
  8  9  1  0  0  0
  8 51  1  0  0  0
  9 50  1  0  0  0
 10 11  1  0  0  0
 10  5  1  0  0  0
 12 13  1  0  0  0
 12 49  1  0  0  0
 13 48  1  0  0  0
 14 15  1  0  0  0
 14 45  1  0  0  0
 16 17  1  0  0  0
 16 11  1  0  0  0
 17 38  1  0  0  0
 18 38  1  0  0  0
 19 20  1  0  0  0
 19 47  1  0  0  0
 20 46  1  0  0  0
 21 22  1  0  0  0
 21 29  1  0  0  0
 23 24  1  0  0  0
 23 43  1  0  0  0
 24 42  1  0  0  0
 25 26  1  0  0  0
 25 41  1  0  0  0
 27 28  1  0  0  0
 27 22  1  0  0  0
 28 40  1  0  0  0
 29 31  1  0  0  0
 30 15  1  0  0  0
 30 18  1  0  0  0
 31 45  1  0  0  0
 32 33  1  0  0  0
 32 55  1  0  0  0
 33 34  1  0  0  0
 33 54  1  0  0  0
  4 36  2  0  0  0
  5  6  2  0  0  0
  7  8  2  0  0  0
  9 10  2  0  0  0
 11 12  2  0  0  0
 13 14  2  0  0  0
 15 16  2  0  0  0
 17 37  2  0  0  0
 18 19  2  0  0  0
 20 21  2  0  0  0
 22 23  2  0  0  0
 24 25  2  0  0  0
 26 27  2  0  0  0
 28 39  2  0  0  0
 29 30  2  0  0  0
 31 44  2  0  0  0
 34 53  2  0  0  0
M  END
> <rmsd>
0.728001475

$$$$
MCULE-8858985465 MolPort-047-134-022 PubChem-131752575


 56 62  0  0  0  0  0  0  0  0999 V2000
   31.7309   -6.2631  -22.4133 C   0  0  0  0  0
   30.2831   -5.8084  -22.5089 C   0  0  0  0  0
   29.6428   -6.1229  -23.8686 C   0  0  0  0  0
   28.5344   -4.4765  -25.3407 C   0  0  0  0  0
   27.5066   -3.4257  -25.5478 C   0  0  0  0  0
   27.0502   -3.2065  -26.8543 C   0  0  0  0  0
   26.0838   -2.2396  -27.1266 C   0  0  0  0  0
   25.5581   -1.4654  -26.0896 C   0  0  0  0  0
   26.0084   -1.6521  -24.7778 C   0  0  0  0  0
   26.9858   -2.6271  -24.4935 C   0  0  0  0  0
   27.4852   -2.7660  -23.1037 C   0  0  0  0  0
   26.6489   -3.3855  -22.1512 C   0  0  0  0  0
   27.1433   -3.7351  -20.8901 C   0  0  0  0  0
   28.4864   -3.5170  -20.5798 C   0  0  0  0  0
   29.3168   -2.8618  -21.5031 C   0  0  0  0  0
   28.8219   -2.4307  -22.7503 C   0  0  0  0  0
   29.7181   -1.7226  -23.5926 C   0  0  0  0  0
   31.5051   -2.0738  -22.1255 C   0  0  0  0  0
   32.8744   -1.9731  -21.8745 C   0  0  0  0  0
   33.4286   -2.5957  -20.7515 C   0  0  0  0  0
   32.6081   -3.2910  -19.8395 C   0  0  0  0  0
   33.2640   -4.1558  -18.8314 C   0  0  0  0  0
   33.7988   -3.5586  -17.6725 C   0  0  0  0  0
   34.4192   -4.3434  -16.6949 C   0  0  0  0  0
   34.5110   -5.7261  -16.8636 C   0  0  0  0  0
   33.9890   -6.3251  -18.0085 C   0  0  0  0  0
   33.3660   -5.5659  -19.0098 C   0  0  0  0  0
   32.8411   -6.2954  -20.2005 C   0  0  0  0  0
   31.1974   -3.2858  -20.0187 C   0  0  0  0  0
   30.6722   -2.7183  -21.1973 C   0  0  0  0  0
   30.2761   -3.8764  -19.1163 C   0  0  0  0  0
   29.1075   -7.5531  -24.0479 C   0  0  0  0  0
   30.1884   -8.6299  -23.9805 C   0  0  0  0  0
   29.7751   -9.8138  -24.8012 C   0  0  0  0  0
   28.6047   -5.1841  -24.1358 O   0  0  0  0  0
   29.3285   -4.7598  -26.2801 O   0  0  0  0  0
   29.3297   -1.2037  -24.6723 O   0  0  0  0  0
   30.9960   -1.5818  -23.2497 O   0  0  0  0  0
   32.8316   -7.5580  -20.1995 O   0  0  0  0  0
   32.3583   -5.6075  -21.3175 O   0  0  0  0  0
   35.1219   -6.5128  -15.8951 O   0  0  0  0  0
   34.9426   -3.7468  -15.5530 O   0  0  0  0  0
   33.7076   -2.1820  -17.4862 O   0  0  0  0  0
   30.6511   -4.3281  -18.0023 O   0  0  0  0  0
   28.9856   -3.9606  -19.4304 O   0  0  0  0  0
   34.8075   -2.5551  -20.5639 O   0  0  0  0  0
   33.6962   -1.2934  -22.7674 O   0  0  0  0  0
   26.3070   -4.3467  -19.9623 O   0  0  0  0  0
   25.3288   -3.6914  -22.4697 O   0  0  0  0  0
   25.4935   -0.8550  -23.7594 O   0  0  0  0  0
   24.5921   -0.5031  -26.3627 O   0  0  0  0  0
   25.6490   -2.0523  -28.4327 O   0  0  0  0  0
   29.6615  -10.9240  -24.3052 O   0  0  0  0  0
   30.4384   -9.0051  -22.6561 O   0  0  0  0  0
   28.0429   -7.8281  -23.1833 O   0  0  0  0  0
   29.5371   -6.3268  -21.4484 O   0  0  0  0  0
  1  2  1  0  0  0
  1 40  1  0  0  0
  2  3  1  0  0  0
  2 56  1  0  0  0
  3 35  1  0  0  0
  3 32  1  0  0  0
  4 35  1  0  0  0
  4  5  1  0  0  0
  6  7  1  0  0  0
  7 52  1  0  0  0
  8  9  1  0  0  0
  8 51  1  0  0  0
  9 50  1  0  0  0
 10 11  1  0  0  0
 10  5  1  0  0  0
 12 13  1  0  0  0
 12 49  1  0  0  0
 13 48  1  0  0  0
 14 15  1  0  0  0
 14 45  1  0  0  0
 16 17  1  0  0  0
 16 11  1  0  0  0
 17 38  1  0  0  0
 18 38  1  0  0  0
 19 20  1  0  0  0
 19 47  1  0  0  0
 20 46  1  0  0  0
 21 22  1  0  0  0
 21 29  1  0  0  0
 23 24  1  0  0  0
 23 43  1  0  0  0
 24 42  1  0  0  0
 25 26  1  0  0  0
 25 41  1  0  0  0
 27 28  1  0  0  0
 27 22  1  0  0  0
 28 40  1  0  0  0
 29 31  1  0  0  0
 30 15  1  0  0  0
 30 18  1  0  0  0
 31 45  1  0  0  0
 32 33  1  0  0  0
 32 55  1  0  0  0
 33 34  1  0  0  0
 33 54  1  0  0  0
  4 36  2  0  0  0
  5  6  2  0  0  0
  7  8  2  0  0  0
  9 10  2  0  0  0
 11 12  2  0  0  0
 13 14  2  0  0  0
 15 16  2  0  0  0
 17 37  2  0  0  0
 18 19  2  0  0  0
 20 21  2  0  0  0
 22 23  2  0  0  0
 24 25  2  0  0  0
 26 27  2  0  0  0
 28 39  2  0  0  0
 29 30  2  0  0  0
 31 44  2  0  0  0
 34 53  2  0  0  0
M  END
> <rmsd>
0.748186886

$$$$
MCULE-8858985465 MolPort-047-134-022 PubChem-131752575


 56 62  0  0  0  0  0  0  0  0999 V2000
   29.8042   -5.9556  -23.8007 C   0  0  0  0  0
   30.9869   -5.2949  -23.1103 C   0  0  0  0  0
   31.9401   -6.3038  -22.4537 C   0  0  0  0  0
   32.6473   -6.2691  -20.0862 C   0  0  0  0  0
   33.2548   -5.5515  -18.9375 C   0  0  0  0  0
   33.8402   -6.3200  -17.9226 C   0  0  0  0  0
   34.4333   -5.7174  -16.8145 C   0  0  0  0  0
   34.4456   -4.3254  -16.6988 C   0  0  0  0  0
   33.8532   -3.5345  -17.6898 C   0  0  0  0  0
   33.2506   -4.1354  -18.8134 C   0  0  0  0  0
   32.5816   -3.2764  -19.8207 C   0  0  0  0  0
   33.3886   -2.5291  -20.7044 C   0  0  0  0  0
   32.8232   -1.8745  -21.8038 C   0  0  0  0  0
   31.4575   -1.9957  -22.0641 C   0  0  0  0  0
   30.6377   -2.7000  -21.1679 C   0  0  0  0  0
   31.1720   -3.3033  -20.0116 C   0  0  0  0  0
   30.2580   -3.9404  -19.1326 C   0  0  0  0  0
   28.4706   -3.5804  -20.5970 C   0  0  0  0  0
   27.1336   -3.8158  -20.9212 C   0  0  0  0  0
   26.6362   -3.4267  -22.1691 C   0  0  0  0  0
   27.4632   -2.7547  -23.0925 C   0  0  0  0  0
   26.9801   -2.6124  -24.4856 C   0  0  0  0  0
   26.0609   -1.5862  -24.7817 C   0  0  0  0  0
   25.5877   -1.4161  -26.0869 C   0  0  0  0  0
   26.0258   -2.2648  -27.1051 C   0  0  0  0  0
   26.9313   -3.2853  -26.8208 C   0  0  0  0  0
   27.4205   -3.4859  -25.5218 C   0  0  0  0  0
   28.3835   -4.6061  -25.3143 C   0  0  0  0  0
   28.7871   -2.3953  -22.7177 C   0  0  0  0  0
   29.2879   -2.8659  -21.4871 C   0  0  0  0  0
   29.6711   -1.6435  -23.5334 C   0  0  0  0  0
   32.9714   -6.9623  -23.3846 C   0  0  0  0  0
   32.3509   -7.8226  -24.4834 C   0  0  0  0  0
   33.3035   -8.9124  -24.8716 C   0  0  0  0  0
   32.6079   -5.6856  -21.3572 O   0  0  0  0  0
   32.1968   -7.4363  -19.9192 O   0  0  0  0  0
   30.6323   -4.4048  -18.0235 O   0  0  0  0  0
   28.9733   -4.0507  -19.4607 O   0  0  0  0  0
   28.8400   -5.2248  -26.3158 O   0  0  0  0  0
   28.7913   -4.9835  -24.0316 O   0  0  0  0  0
   25.5637   -2.0995  -28.4047 O   0  0  0  0  0
   24.6823   -0.3997  -26.3716 O   0  0  0  0  0
   25.6210   -0.7268  -23.7787 O   0  0  0  0  0
   29.2788   -1.1139  -24.6065 O   0  0  0  0  0
   30.9419   -1.4779  -23.1745 O   0  0  0  0  0
   25.3235   -3.7456  -22.5062 O   0  0  0  0  0
   26.3073   -4.4809  -20.0214 O   0  0  0  0  0
   33.6320   -1.1430  -22.6669 O   0  0  0  0  0
   34.7661   -2.4660  -20.5134 O   0  0  0  0  0
   33.8508   -2.1498  -17.5473 O   0  0  0  0  0
   35.0402   -3.7258  -15.5940 O   0  0  0  0  0
   35.0102   -6.5089  -15.8293 O   0  0  0  0  0
   33.7083   -9.0258  -26.0181 O   0  0  0  0  0
   32.0065   -7.0438  -25.5935 O   0  0  0  0  0
   33.8819   -6.0342  -23.9007 O   0  0  0  0  0
   31.6550   -4.4439  -23.9930 O   0  0  0  0  0
  1  2  1  0  0  0
  1 40  1  0  0  0
  2  3  1  0  0  0
  2 56  1  0  0  0
  3 35  1  0  0  0
  3 32  1  0  0  0
  4 35  1  0  0  0
  4  5  1  0  0  0
  6  7  1  0  0  0
  7 52  1  0  0  0
  8  9  1  0  0  0
  8 51  1  0  0  0
  9 50  1  0  0  0
 10 11  1  0  0  0
 10  5  1  0  0  0
 12 13  1  0  0  0
 12 49  1  0  0  0
 13 48  1  0  0  0
 14 15  1  0  0  0
 14 45  1  0  0  0
 16 17  1  0  0  0
 16 11  1  0  0  0
 17 38  1  0  0  0
 18 38  1  0  0  0
 19 20  1  0  0  0
 19 47  1  0  0  0
 20 46  1  0  0  0
 21 22  1  0  0  0
 21 29  1  0  0  0
 23 24  1  0  0  0
 23 43  1  0  0  0
 24 42  1  0  0  0
 25 26  1  0  0  0
 25 41  1  0  0  0
 27 28  1  0  0  0
 27 22  1  0  0  0
 28 40  1  0  0  0
 29 31  1  0  0  0
 30 15  1  0  0  0
 30 18  1  0  0  0
 31 45  1  0  0  0
 32 33  1  0  0  0
 32 55  1  0  0  0
 33 34  1  0  0  0
 33 54  1  0  0  0
  4 36  2  0  0  0
  5  6  2  0  0  0
  7  8  2  0  0  0
  9 10  2  0  0  0
 11 12  2  0  0  0
 13 14  2  0  0  0
 15 16  2  0  0  0
 17 37  2  0  0  0
 18 19  2  0  0  0
 20 21  2  0  0  0
 22 23  2  0  0  0
 24 25  2  0  0  0
 26 27  2  0  0  0
 28 39  2  0  0  0
 29 30  2  0  0  0
 31 44  2  0  0  0
 34 53  2  0  0  0
M  END
> <rmsd>
0.728620529

$$$$
MCULE-5879511087 MolPort-005-945-566 PubChem-45360118


 96106  0  0  0  0  0  0  0  0999 V2000
   24.6702   -1.9431  -23.7915 C   0  0  0  0  0
   25.2356   -0.6594  -24.3644 C   0  0  0  0  0
   26.7147   -0.4422  -24.0247 C   0  0  0  0  0
   27.6279   -1.2987  -24.9022 C   0  0  0  0  0
   27.2284   -1.1804  -26.3727 C   0  0  0  0  0
   25.7082   -1.3190  -26.5765 C   0  0  0  0  0
   24.0984   -2.7400  -27.2077 C   0  0  0  0  0
   23.1838   -3.7068  -26.4557 C   0  0  0  0  0
   23.2882   -5.1375  -26.9981 C   0  0  0  0  0
   24.5433   -4.6574  -28.8591 C   0  0  0  0  0
   24.2870   -3.1547  -28.6876 C   0  0  0  0  0
   23.9867   -6.5383  -30.0139 C   0  0  0  0  0
   22.7808   -7.4294  -29.7044 C   0  0  0  0  0
   21.6625   -7.1961  -30.7212 C   0  0  0  0  0
   22.1294   -7.5418  -32.1389 C   0  0  0  0  0
   23.4042   -6.7144  -32.4852 C   0  0  0  0  0
   24.5480   -6.7820  -31.4383 C   0  0  0  0  0
   25.2240   -8.1582  -31.4743 C   0  0  0  0  0
   25.6037   -5.7164  -31.7923 C   0  0  0  0  0
   23.8667   -6.9372  -33.9279 C   0  0  0  0  0
   22.7556   -6.5877  -34.9215 C   0  0  0  0  0
   21.4714   -7.3995  -34.6682 C   0  0  0  0  0
   21.0119   -7.1993  -33.1817 C   0  0  0  0  0
   20.4584   -5.7685  -32.9250 C   0  0  0  0  0
   19.9166   -5.0297  -34.1160 C   0  0  0  0  0
   19.8896   -5.5118  -35.3655 C   0  0  0  0  0
   20.3313   -6.9558  -35.6457 C   0  0  0  0  0
   20.7800   -7.1704  -37.1141 C   0  0  0  0  0
   20.9439   -5.8826  -37.9021 C   0  0  0  0  0
   19.6325   -5.0744  -37.9305 C   0  0  0  0  0
   19.2264   -4.6929  -36.4664 C   0  0  0  0  0
   19.2278   -3.1757  -36.1862 C   0  0  0  0  0
   18.3776   -2.4229  -37.2178 C   0  0  0  0  0
   18.7095   -2.8111  -38.6740 C   0  0  0  0  0
   19.8732   -3.8136  -38.7812 C   0  0  0  0  0
   18.6366   -0.9404  -37.0400 C   0  0  0  0  0
   16.8961   -2.6923  -36.9704 C   0  0  0  0  0
   18.5193   -5.8906  -38.5606 C   0  0  0  0  0
   16.1786   -6.6788  -38.5211 C   0  0  0  0  0
   15.5682   -5.8164  -39.6466 C   0  0  0  0  0
   14.3721   -6.5490  -40.2749 C   0  0  0  0  0
   13.4784   -7.2317  -39.2192 C   0  0  0  0  0
   14.3269   -7.8984  -38.1274 C   0  0  0  0  0
   19.0969   -7.8454  -35.4419 C   0  0  0  0  0
   21.7793   -8.8675  -34.9452 C   0  0  0  0  0
   22.3952   -9.0500  -32.1670 C   0  0  0  0  0
   23.0797   -6.1306  -25.9137 C   0  0  0  0  0
   28.4778   -2.7674  -23.4422 C   0  0  0  0  0
   29.5917   -3.8159  -23.7302 C   0  0  0  0  0
   29.9153   -4.6750  -22.4893 C   0  0  0  0  0
   28.6574   -5.2084  -21.7827 C   0  0  0  0  0
   27.4367   -4.3683  -22.1759 C   0  0  0  0  0
   26.2098   -4.5979  -21.3124 C   0  0  0  0  0
   31.8562   -5.8320  -21.9311 C   0  0  0  0  0
   31.6171   -6.9303  -20.8744 C   0  0  0  0  0
   32.6112   -6.7296  -19.7345 C   0  0  0  0  0
   32.5083   -5.3239  -19.1226 C   0  0  0  0  0
   31.9028   -4.3460  -20.1438 C   0  0  0  0  0
   32.0760   -2.8886  -19.7775 C   0  0  0  0  0
   33.8018   -5.0937  -17.3276 C   0  0  0  0  0
   33.5586   -3.7721  -16.5165 C   0  0  0  0  0
   34.4330   -3.7223  -15.2659 C   0  0  0  0  0
   35.8912   -4.0978  -15.5541 C   0  0  0  0  0
   36.0239   -4.9712  -16.8058 C   0  0  0  0  0
   24.9241   -0.4863  -25.7356 O   0  0  0  0  0
   25.3168   -2.6622  -26.5141 O   0  0  0  0  0
   24.5331   -5.3559  -27.6182 O   0  0  0  0  0
   25.3348   -2.4513  -29.2650 O   0  0  0  0  0
   23.6308   -5.1932  -29.8028 O   0  0  0  0  0
   26.6921   -5.7655  -30.9194 O   0  0  0  0  0
   18.7048   -6.4585  -39.6733 O   0  0  0  0  0
   17.2794   -6.0029  -37.9234 O   0  0  0  0  0
   15.2066   -6.9679  -37.5425 O   0  0  0  0  0
   12.5982   -6.3068  -38.6492 O   0  0  0  0  0
   14.8272   -7.5098  -41.1761 O   0  0  0  0  0
   15.1480   -4.5801  -39.1463 O   0  0  0  0  0
   21.4079   -6.1845  -39.1923 O   0  0  0  0  0
   22.1470   -6.9606  -26.0068 O   0  0  0  0  0
   23.9691   -6.2112  -24.8466 O   0  0  0  0  0
   21.8534   -3.2646  -26.5278 O   0  0  0  0  0
   27.6737    0.0419  -26.8840 O   0  0  0  0  0
   27.5727   -2.6457  -24.5146 O   0  0  0  0  0
   27.7782   -2.9991  -22.2294 O   0  0  0  0  0
   26.3365   -3.9266  -20.0944 O   0  0  0  0  0
   28.8569   -5.1647  -20.4028 O   0  0  0  0  0
   30.7834   -5.7226  -22.8548 O   0  0  0  0  0
   32.3625   -4.5836  -21.4571 O   0  0  0  0  0
   33.7742   -4.8944  -18.7170 O   0  0  0  0  0
   34.9298   -5.8489  -16.9265 O   0  0  0  0  0
   36.6652   -2.9434  -15.7299 O   0  0  0  0  0
   33.9282   -4.5681  -14.2836 O   0  0  0  0  0
   33.8254   -2.6539  -17.3065 O   0  0  0  0  0
   32.4206   -7.6909  -18.7444 O   0  0  0  0  0
   31.7824   -8.1914  -21.4515 O   0  0  0  0  0
   29.2540   -4.6361  -24.8123 O   0  0  0  0  0
   27.0266    0.9054  -24.1771 O   0  0  0  0  0
  2  1  1  0  0  0
  2  3  1  0  0  0
  2 65  1  0  0  0
  3  4  1  0  0  0
  3 96  1  0  0  0
  4  5  1  0  0  0
  4 82  1  0  0  0
  5  6  1  0  0  0
  5 81  1  0  0  0
  6 65  1  0  0  0
  6 66  1  0  0  0
  7 66  1  0  0  0
  7  8  1  0  0  0
  8  9  1  0  0  0
  8 80  1  0  0  0
  9 67  1  0  0  0
  9 47  1  0  0  0
 10 67  1  0  0  0
 10 11  1  0  0  0
 10 69  1  0  0  0
 11 68  1  0  0  0
 11  7  1  0  0  0
 12 69  1  0  0  0
 12 13  1  0  0  0
 13 14  1  0  0  0
 14 15  1  0  0  0
 15 16  1  0  0  0
 15 46  1  0  0  0
 16 17  1  0  0  0
 16 20  1  0  0  0
 17 18  1  0  0  0
 17 19  1  0  0  0
 17 12  1  0  0  0
 19 70  1  0  0  0
 20 21  1  0  0  0
 21 22  1  0  0  0
 22 23  1  0  0  0
 22 45  1  0  0  0
 23 24  1  0  0  0
 23 15  1  0  0  0
 24 25  1  0  0  0
 27 26  1  0  0  0
 27 28  1  0  0  0
 27 44  1  0  0  0
 27 22  1  0  0  0
 28 29  1  0  0  0
 29 30  1  0  0  0
 29 77  1  0  0  0
 30 31  1  0  0  0
 30 38  1  0  0  0
 31 32  1  0  0  0
 31 26  1  0  0  0
 32 33  1  0  0  0
 33 34  1  0  0  0
 33 36  1  0  0  0
 33 37  1  0  0  0
 34 35  1  0  0  0
 35 30  1  0  0  0
 38 72  1  0  0  0
 39 72  1  0  0  0
 39 40  1  0  0  0
 39 73  1  0  0  0
 40 41  1  0  0  0
 40 76  1  0  0  0
 41 42  1  0  0  0
 41 75  1  0  0  0
 42 43  1  0  0  0
 42 74  1  0  0  0
 43 73  1  0  0  0
 47 79  1  0  0  0
 48 82  1  0  0  0
 48 49  1  0  0  0
 48 83  1  0  0  0
 49 50  1  0  0  0
 49 95  1  0  0  0
 50 51  1  0  0  0
 50 86  1  0  0  0
 51 52  1  0  0  0
 51 85  1  0  0  0
 52 83  1  0  0  0
 52 53  1  0  0  0
 53 84  1  0  0  0
 54 86  1  0  0  0
 54 55  1  0  0  0
 54 87  1  0  0  0
 55 56  1  0  0  0
 55 94  1  0  0  0
 56 57  1  0  0  0
 56 93  1  0  0  0
 57 58  1  0  0  0
 57 88  1  0  0  0
 58 87  1  0  0  0
 58 59  1  0  0  0
 60 88  1  0  0  0
 60 61  1  0  0  0
 60 89  1  0  0  0
 61 62  1  0  0  0
 61 92  1  0  0  0
 62 63  1  0  0  0
 62 91  1  0  0  0
 63 64  1  0  0  0
 63 90  1  0  0  0
 64 89  1  0  0  0
 25 26  2  0  0  0
 38 71  2  0  0  0
 47 78  2  0  0  0
M  END
> <rmsd>
0.659456253

$$$$
MCULE-5879511087 MolPort-005-945-566 PubChem-45360118


 96106  0  0  0  0  0  0  0  0999 V2000
   24.4870   -1.1712  -23.4160 C   0  0  0  0  0
   24.7542    0.3165  -23.3106 C   0  0  0  0  0
   26.1809    0.6468  -22.8569 C   0  0  0  0  0
   27.1868    0.4928  -23.9979 C   0  0  0  0  0
   26.6807    1.1897  -25.2605 C   0  0  0  0  0
   25.2070    0.8567  -25.5590 C   0  0  0  0  0
   23.8689   -0.4077  -26.8318 C   0  0  0  0  0
   23.2093   -1.7738  -26.6444 C   0  0  0  0  0
   23.5566   -2.7417  -27.7824 C   0  0  0  0  0
   24.5750   -1.2187  -29.1653 C   0  0  0  0  0
   24.0419   -0.0491  -28.3282 C   0  0  0  0  0
   24.3248   -2.4281  -31.0773 C   0  0  0  0  0
   23.3376   -3.5844  -31.2574 C   0  0  0  0  0
   22.1339   -3.1414  -32.0903 C   0  0  0  0  0
   22.5696   -2.6954  -33.4898 C   0  0  0  0  0
   23.6343   -1.5635  -33.3693 C   0  0  0  0  0
   24.8327   -1.8718  -32.4323 C   0  0  0  0  0
   25.7605   -2.9096  -33.0761 C   0  0  0  0  0
   25.6360   -0.5744  -32.2164 C   0  0  0  0  0
   24.0403   -1.0006  -34.7344 C   0  0  0  0  0
   22.8225   -0.4662  -35.4927 C   0  0  0  0  0
   21.7396   -1.5439  -35.6888 C   0  0  0  0  0
   21.3438   -2.1458  -34.2953 C   0  0  0  0  0
   20.5391   -1.1373  -33.4264 C   0  0  0  0  0
   19.7901   -0.0607  -34.1597 C   0  0  0  0  0
   19.7795    0.0904  -35.4907 C   0  0  0  0  0
   20.4760   -0.9412  -36.3905 C   0  0  0  0  0
   20.8651   -0.3622  -37.7749 C   0  0  0  0  0
   20.7252    1.1468  -37.8725 C   0  0  0  0  0
   19.2822    1.5945  -37.5707 C   0  0  0  0  0
   18.9019    1.1706  -36.1114 C   0  0  0  0  0
   18.6249    2.3548  -35.1622 C   0  0  0  0  0
   17.5814    3.3082  -35.7586 C   0  0  0  0  0
   17.8908    3.7078  -37.2167 C   0  0  0  0  0
   19.2187    3.1244  -37.7336 C   0  0  0  0  0
   17.5569    4.5615  -34.9070 C   0  0  0  0  0
   16.1993    2.6627  -35.7163 C   0  0  0  0  0
   18.3124    0.9531  -38.5456 C   0  0  0  0  0
   16.1774   -0.2191  -38.9576 C   0  0  0  0  0
   15.3413    0.9206  -39.5782 C   0  0  0  0  0
   14.2741    0.3340  -40.5158 C   0  0  0  0  0
   13.5986   -0.9217  -39.9273 C   0  0  0  0  0
   14.6275   -1.8286  -39.2377 C   0  0  0  0  0
   19.4540   -2.0534  -36.6645 C   0  0  0  0  0
   22.3099   -2.6246  -36.6015 C   0  0  0  0  0
   23.1222   -3.9337  -34.2020 C   0  0  0  0  0
   23.6140   -4.1407  -27.2875 C   0  0  0  0  0
   28.3965   -1.2767  -23.3525 C   0  0  0  0  0
   29.6731   -1.8269  -24.0527 C   0  0  0  0  0
   30.2351   -3.0746  -23.3385 C   0  0  0  0  0
   29.1521   -4.1143  -23.0032 C   0  0  0  0  0
   27.7688   -3.4531  -23.0068 C   0  0  0  0  0
   26.6667   -4.2957  -22.3911 C   0  0  0  0  0
   32.3954   -3.9405  -23.3096 C   0  0  0  0  0
   32.4417   -5.4239  -22.8890 C   0  0  0  0  0
   33.4469   -5.5731  -21.7509 C   0  0  0  0  0
   33.1103   -4.6586  -20.5629 C   0  0  0  0  0
   32.2630   -3.4659  -21.0375 C   0  0  0  0  0
   32.1712   -2.3382  -20.0335 C   0  0  0  0  0
   34.4438   -5.0227  -18.8201 C   0  0  0  0  0
   33.9987   -4.3006  -17.4993 C   0  0  0  0  0
   34.9231   -4.6553  -16.3371 C   0  0  0  0  0
   36.4056   -4.5537  -16.7143 C   0  0  0  0  0
   36.6275   -4.7080  -18.2224 C   0  0  0  0  0
   24.3297    1.0329  -24.4568 O   0  0  0  0  0
   25.0898   -0.4130  -26.1380 O   0  0  0  0  0
   24.7789   -2.3948  -28.3887 O   0  0  0  0  0
   24.8941    1.0360  -28.4778 O   0  0  0  0  0
   23.7274   -1.4330  -30.2814 O   0  0  0  0  0
   26.7655   -0.7981  -31.4269 O   0  0  0  0  0
   18.5350    1.0101  -39.7874 O   0  0  0  0  0
   17.1604    0.3133  -38.0766 O   0  0  0  0  0
   15.3436   -1.1145  -38.2584 O   0  0  0  0  0
   12.5924   -0.5607  -39.0261 O   0  0  0  0  0
   14.8507    0.0082  -41.7422 O   0  0  0  0  0
   14.7203    1.6758  -38.5786 O   0  0  0  0  0
   21.1574    1.5716  -39.1389 O   0  0  0  0  0
   22.8571   -5.0043  -27.7866 O   0  0  0  0  0
   24.5670   -4.5209  -26.3477 O   0  0  0  0  0
   21.8164   -1.6266  -26.5511 O   0  0  0  0  0
   26.8462    2.5717  -25.1332 O   0  0  0  0  0
   27.4197   -0.8616  -24.2786 O   0  0  0  0  0
   27.8328   -2.1751  -22.4095 O   0  0  0  0  0
   26.7360   -4.2485  -20.9971 O   0  0  0  0  0
   29.4251   -4.6697  -21.7532 O   0  0  0  0  0
   31.2662   -3.6381  -24.1156 O   0  0  0  0  0
   32.6771   -2.9758  -22.2948 O   0  0  0  0  0
   34.2910   -4.2179  -19.9602 O   0  0  0  0  0
   35.7202   -5.6326  -18.7736 O   0  0  0  0  0
   36.9271   -3.3181  -16.3095 O   0  0  0  0  0
   34.6554   -5.9399  -15.8752 O   0  0  0  0  0
   33.9924   -2.9167  -17.6734 O   0  0  0  0  0
   33.5097   -6.8978  -21.3243 O   0  0  0  0  0
   32.8133   -6.2168  -23.9772 O   0  0  0  0  0
   29.4349   -2.1079  -25.4025 O   0  0  0  0  0
   26.2138    1.9455  -22.3583 O   0  0  0  0  0
  2  1  1  0  0  0
  2  3  1  0  0  0
  2 65  1  0  0  0
  3  4  1  0  0  0
  3 96  1  0  0  0
  4  5  1  0  0  0
  4 82  1  0  0  0
  5  6  1  0  0  0
  5 81  1  0  0  0
  6 65  1  0  0  0
  6 66  1  0  0  0
  7 66  1  0  0  0
  7  8  1  0  0  0
  8  9  1  0  0  0
  8 80  1  0  0  0
  9 67  1  0  0  0
  9 47  1  0  0  0
 10 67  1  0  0  0
 10 11  1  0  0  0
 10 69  1  0  0  0
 11 68  1  0  0  0
 11  7  1  0  0  0
 12 69  1  0  0  0
 12 13  1  0  0  0
 13 14  1  0  0  0
 14 15  1  0  0  0
 15 16  1  0  0  0
 15 46  1  0  0  0
 16 17  1  0  0  0
 16 20  1  0  0  0
 17 18  1  0  0  0
 17 19  1  0  0  0
 17 12  1  0  0  0
 19 70  1  0  0  0
 20 21  1  0  0  0
 21 22  1  0  0  0
 22 23  1  0  0  0
 22 45  1  0  0  0
 23 24  1  0  0  0
 23 15  1  0  0  0
 24 25  1  0  0  0
 27 26  1  0  0  0
 27 28  1  0  0  0
 27 44  1  0  0  0
 27 22  1  0  0  0
 28 29  1  0  0  0
 29 30  1  0  0  0
 29 77  1  0  0  0
 30 31  1  0  0  0
 30 38  1  0  0  0
 31 32  1  0  0  0
 31 26  1  0  0  0
 32 33  1  0  0  0
 33 34  1  0  0  0
 33 36  1  0  0  0
 33 37  1  0  0  0
 34 35  1  0  0  0
 35 30  1  0  0  0
 38 72  1  0  0  0
 39 72  1  0  0  0
 39 40  1  0  0  0
 39 73  1  0  0  0
 40 41  1  0  0  0
 40 76  1  0  0  0
 41 42  1  0  0  0
 41 75  1  0  0  0
 42 43  1  0  0  0
 42 74  1  0  0  0
 43 73  1  0  0  0
 47 79  1  0  0  0
 48 82  1  0  0  0
 48 49  1  0  0  0
 48 83  1  0  0  0
 49 50  1  0  0  0
 49 95  1  0  0  0
 50 51  1  0  0  0
 50 86  1  0  0  0
 51 52  1  0  0  0
 51 85  1  0  0  0
 52 83  1  0  0  0
 52 53  1  0  0  0
 53 84  1  0  0  0
 54 86  1  0  0  0
 54 55  1  0  0  0
 54 87  1  0  0  0
 55 56  1  0  0  0
 55 94  1  0  0  0
 56 57  1  0  0  0
 56 93  1  0  0  0
 57 58  1  0  0  0
 57 88  1  0  0  0
 58 87  1  0  0  0
 58 59  1  0  0  0
 60 88  1  0  0  0
 60 61  1  0  0  0
 60 89  1  0  0  0
 61 62  1  0  0  0
 61 92  1  0  0  0
 62 63  1  0  0  0
 62 91  1  0  0  0
 63 64  1  0  0  0
 63 90  1  0  0  0
 64 89  1  0  0  0
 25 26  2  0  0  0
 38 71  2  0  0  0
 47 78  2  0  0  0
M  END
> <rmsd>
0.696203887

$$$$
MCULE-5879511087 MolPort-005-945-566 PubChem-45360118


 96106  0  0  0  0  0  0  0  0999 V2000
   24.6075   -1.3072  -23.4551 C   0  0  0  0  0
   25.1993   -0.0072  -23.9605 C   0  0  0  0  0
   26.6910    0.1458  -23.6416 C   0  0  0  0  0
   27.5595   -0.6804  -24.5906 C   0  0  0  0  0
   27.1333   -0.4595  -26.0417 C   0  0  0  0  0
   25.6057   -0.5412  -26.2192 C   0  0  0  0  0
   23.9410   -1.8733  -26.9000 C   0  0  0  0  0
   23.0135   -2.8582  -26.1885 C   0  0  0  0  0
   23.0635   -4.2549  -26.8202 C   0  0  0  0  0
   24.2935   -3.6963  -28.6760 C   0  0  0  0  0
   24.0862   -2.2005  -28.4066 C   0  0  0  0  0
   23.6565   -5.4849  -29.9315 C   0  0  0  0  0
   22.4310   -6.3585  -29.6503 C   0  0  0  0  0
   21.2994   -6.0303  -30.6252 C   0  0  0  0  0
   21.7260   -6.3004  -32.0717 C   0  0  0  0  0
   23.0177   -5.4901  -32.3951 C   0  0  0  0  0
   24.1805   -5.6556  -31.3805 C   0  0  0  0  0
   24.8139   -7.0459  -31.5165 C   0  0  0  0  0
   25.2603   -4.6010  -31.6921 C   0  0  0  0  0
   23.4432   -5.6360  -33.8589 C   0  0  0  0  0
   22.3228   -5.1935  -34.8037 C   0  0  0  0  0
   21.0202   -5.9822  -34.5719 C   0  0  0  0  0
   20.5979   -5.8617  -33.0659 C   0  0  0  0  0
   20.0933   -4.4342  -32.7092 C   0  0  0  0  0
   19.5493   -3.6075  -33.8399 C   0  0  0  0  0
   19.4818   -4.0100  -35.1158 C   0  0  0  0  0
   19.8739   -5.4459  -35.4942 C   0  0  0  0  0
   20.2853   -5.5815  -36.9828 C   0  0  0  0  0
   20.4716   -4.2525  -37.6935 C   0  0  0  0  0
   19.1848   -3.4067  -37.6424 C   0  0  0  0  0
   18.8209   -3.1054  -36.1489 C   0  0  0  0  0
   18.8738   -1.6093  -35.7759 C   0  0  0  0  0
   18.0255   -0.7696  -36.7397 C   0  0  0  0  0
   18.3151   -1.0759  -38.2241 C   0  0  0  0  0
   19.4456   -2.1029  -38.4191 C   0  0  0  0  0
   18.3327    0.6909  -36.4768 C   0  0  0  0  0
   16.5420   -1.0111  -36.4759 C   0  0  0  0  0
   18.0347   -4.1498  -38.2962 C   0  0  0  0  0
   15.6725   -4.8711  -38.2524 C   0  0  0  0  0
   15.0651   -3.9231  -39.3086 C   0  0  0  0  0
   13.8347   -4.5805  -39.9537 C   0  0  0  0  0
   12.9430   -5.3016  -38.9220 C   0  0  0  0  0
   13.7936   -6.0590  -37.8928 C   0  0  0  0  0
   18.6178   -6.3105  -35.3177 C   0  0  0  0  0
   21.2779   -7.4384  -34.9456 C   0  0  0  0  0
   21.9457   -7.8110  -32.1986 C   0  0  0  0  0
   22.8477   -5.3071  -25.7945 C   0  0  0  0  0
   28.3950   -2.2609  -23.2434 C   0  0  0  0  0
   29.4705   -3.3212  -23.6205 C   0  0  0  0  0
   29.7938   -4.2647  -22.4425 C   0  0  0  0  0
   28.5354   -4.8046  -21.7418 C   0  0  0  0  0
   27.3326   -3.9069  -22.0549 C   0  0  0  0  0
   26.1175   -4.1543  -21.1796 C   0  0  0  0  0
   31.7101   -5.5097  -22.0006 C   0  0  0  0  0
   31.4601   -6.6642  -21.0084 C   0  0  0  0  0
   32.4832   -6.5635  -19.8810 C   0  0  0  0  0
   32.4355   -5.1962  -19.1817 C   0  0  0  0  0
   31.8386   -4.1397  -20.1267 C   0  0  0  0  0
   32.0632   -2.7135  -19.6755 C   0  0  0  0  0
   33.7724   -5.1155  -17.4056 C   0  0  0  0  0
   33.5860   -3.8404  -16.5093 C   0  0  0  0  0
   34.4873   -3.8937  -15.2782 C   0  0  0  0  0
   35.9273   -4.2923  -15.6218 C   0  0  0  0  0
   36.0075   -5.0897  -16.9277 C   0  0  0  0  0
   24.8647    0.2598  -25.3111 O   0  0  0  0  0
   25.1754   -1.8739  -26.2307 O   0  0  0  0  0
   24.2881   -4.4700  -27.4805 O   0  0  0  0  0
   25.1425   -1.4929  -28.9631 O   0  0  0  0  0
   23.3458   -4.1458  -29.6300 O   0  0  0  0  0
   26.3646   -4.7355  -30.8486 O   0  0  0  0  0
   18.1798   -4.6524  -39.4457 O   0  0  0  0  0
   16.8054   -4.2657  -37.6393 O   0  0  0  0  0
   14.7129   -5.1924  -37.2718 O   0  0  0  0  0
   12.1031   -4.3889  -38.2764 O   0  0  0  0  0
   14.2419   -5.4961  -40.9224 O   0  0  0  0  0
   14.6929   -2.7088  -38.7238 O   0  0  0  0  0
   20.8993   -4.4868  -39.0100 O   0  0  0  0  0
   21.8886   -6.1025  -25.9174 O   0  0  0  0  0
   23.7562   -5.4794  -24.7548 O   0  0  0  0  0
   21.6958   -2.3744  -26.2031 O   0  0  0  0  0
   27.6045    0.7789  -26.4867 O   0  0  0  0  0
   27.4718   -2.0467  -24.2855 O   0  0  0  0  0
   27.7141   -2.5474  -22.0317 O   0  0  0  0  0
   26.2897   -3.5640  -19.9257 O   0  0  0  0  0
   28.7647   -4.8526  -20.3667 O   0  0  0  0  0
   30.6221   -5.3122  -22.8913 O   0  0  0  0  0
   32.2635   -4.3082  -21.4622 O   0  0  0  0  0
   33.7219   -4.8294  -18.7791 O   0  0  0  0  0
   34.8852   -5.9263  -17.0773 O   0  0  0  0  0
   36.7319   -3.1520  -15.7438 O   0  0  0  0  0
   33.9778   -4.7841  -14.3387 O   0  0  0  0  0
   33.8699   -2.6834  -17.2348 O   0  0  0  0  0
   32.2844   -7.5786  -18.9479 O   0  0  0  0  0
   31.5752   -7.8912  -21.6657 O   0  0  0  0  0
   29.0858   -4.0624  -24.7432 O   0  0  0  0  0
   27.0401    1.4907  -23.7178 O   0  0  0  0  0
  2  1  1  0  0  0
  2  3  1  0  0  0
  2 65  1  0  0  0
  3  4  1  0  0  0
  3 96  1  0  0  0
  4  5  1  0  0  0
  4 82  1  0  0  0
  5  6  1  0  0  0
  5 81  1  0  0  0
  6 65  1  0  0  0
  6 66  1  0  0  0
  7 66  1  0  0  0
  7  8  1  0  0  0
  8  9  1  0  0  0
  8 80  1  0  0  0
  9 67  1  0  0  0
  9 47  1  0  0  0
 10 67  1  0  0  0
 10 11  1  0  0  0
 10 69  1  0  0  0
 11 68  1  0  0  0
 11  7  1  0  0  0
 12 69  1  0  0  0
 12 13  1  0  0  0
 13 14  1  0  0  0
 14 15  1  0  0  0
 15 16  1  0  0  0
 15 46  1  0  0  0
 16 17  1  0  0  0
 16 20  1  0  0  0
 17 18  1  0  0  0
 17 19  1  0  0  0
 17 12  1  0  0  0
 19 70  1  0  0  0
 20 21  1  0  0  0
 21 22  1  0  0  0
 22 23  1  0  0  0
 22 45  1  0  0  0
 23 24  1  0  0  0
 23 15  1  0  0  0
 24 25  1  0  0  0
 27 26  1  0  0  0
 27 28  1  0  0  0
 27 44  1  0  0  0
 27 22  1  0  0  0
 28 29  1  0  0  0
 29 30  1  0  0  0
 29 77  1  0  0  0
 30 31  1  0  0  0
 30 38  1  0  0  0
 31 32  1  0  0  0
 31 26  1  0  0  0
 32 33  1  0  0  0
 33 34  1  0  0  0
 33 36  1  0  0  0
 33 37  1  0  0  0
 34 35  1  0  0  0
 35 30  1  0  0  0
 38 72  1  0  0  0
 39 72  1  0  0  0
 39 40  1  0  0  0
 39 73  1  0  0  0
 40 41  1  0  0  0
 40 76  1  0  0  0
 41 42  1  0  0  0
 41 75  1  0  0  0
 42 43  1  0  0  0
 42 74  1  0  0  0
 43 73  1  0  0  0
 47 79  1  0  0  0
 48 82  1  0  0  0
 48 49  1  0  0  0
 48 83  1  0  0  0
 49 50  1  0  0  0
 49 95  1  0  0  0
 50 51  1  0  0  0
 50 86  1  0  0  0
 51 52  1  0  0  0
 51 85  1  0  0  0
 52 83  1  0  0  0
 52 53  1  0  0  0
 53 84  1  0  0  0
 54 86  1  0  0  0
 54 55  1  0  0  0
 54 87  1  0  0  0
 55 56  1  0  0  0
 55 94  1  0  0  0
 56 57  1  0  0  0
 56 93  1  0  0  0
 57 58  1  0  0  0
 57 88  1  0  0  0
 58 87  1  0  0  0
 58 59  1  0  0  0
 60 88  1  0  0  0
 60 61  1  0  0  0
 60 89  1  0  0  0
 61 62  1  0  0  0
 61 92  1  0  0  0
 62 63  1  0  0  0
 62 91  1  0  0  0
 63 64  1  0  0  0
 63 90  1  0  0  0
 64 89  1  0  0  0
 25 26  2  0  0  0
 38 71  2  0  0  0
 47 78  2  0  0  0
M  END
> <rmsd>
0.712747633

$$$$
MCULE-4475984106 MolPort-019-937-423 PubChem-51136511 ZINC000253389129


 64 70  0  0  0  0  0  0  0  0999 V2000
   29.4680  -13.3344  -21.9056 C   0  0  0  0  0
   28.3822  -12.3772  -21.4471 C   0  0  0  0  0
   27.0415  -13.1094  -21.3195 C   0  0  0  0  0
   25.9757  -12.1092  -20.8791 C   0  0  0  0  0
   26.4344  -11.3210  -19.6508 C   0  0  0  0  0
   27.8579  -10.7813  -19.8640 C   0  0  0  0  0
   27.6152   -8.5744  -20.0854 C   0  0  0  0  0
   28.8086   -7.6330  -20.0963 C   0  0  0  0  0
   29.9446   -8.2257  -19.2295 C   0  0  0  0  0
   30.2679   -7.3670  -17.9987 C   0  0  0  0  0
   30.2725   -5.8566  -18.2981 C   0  0  0  0  0
   29.5102   -5.5413  -19.5858 C   0  0  0  0  0
   28.5441   -3.5831  -20.7365 C   0  0  0  0  0
   29.2803   -2.7269  -21.5878 C   0  0  0  0  0
   27.4171   -2.4123  -22.9687 C   0  0  0  0  0
   26.8988   -1.8238  -24.1175 C   0  0  0  0  0
   25.5795   -2.0635  -24.5211 C   0  0  0  0  0
   24.7602   -2.9176  -23.7468 C   0  0  0  0  0
   25.2699   -3.4849  -22.5663 C   0  0  0  0  0
   26.6076   -3.2454  -22.1717 C   0  0  0  0  0
   27.1873   -3.8124  -21.0193 C   0  0  0  0  0
   22.8811   -3.0341  -25.3903 C   0  0  0  0  0
   25.7997   -0.4632  -26.4022 C   0  0  0  0  0
   25.3159   -0.4116  -27.8505 C   0  0  0  0  0
   26.1387    0.6223  -28.6225 C   0  0  0  0  0
   26.1848    1.9524  -27.8674 C   0  0  0  0  0
   26.4583    1.7509  -26.3672 C   0  0  0  0  0
   27.9301    1.5000  -26.0587 C   0  0  0  0  0
   30.7098   -2.3989  -21.3699 C   0  0  0  0  0
   31.5684   -3.2509  -20.6619 C   0  0  0  0  0
   32.9207   -2.9332  -20.5066 C   0  0  0  0  0
   33.4296   -1.7576  -21.0610 C   0  0  0  0  0
   32.5889   -0.9061  -21.7795 C   0  0  0  0  0
   31.2376   -1.2283  -21.9366 C   0  0  0  0  0
   31.9160   -4.9591  -17.0877 C   0  0  0  0  0
   33.4254   -5.1328  -16.8376 C   0  0  0  0  0
   33.9697   -4.0312  -15.9244 C   0  0  0  0  0
   33.5929   -2.6464  -16.4610 C   0  0  0  0  0
   32.3214   -2.6957  -17.3180 C   0  0  0  0  0
   31.6568   -1.3337  -17.3374 C   0  0  0  0  0
   28.7629  -11.8140  -20.2080 O   0  0  0  0  0
   27.8950   -9.7400  -20.8060 O   0  0  0  0  0
   28.3777   -6.3667  -19.6508 O   0  0  0  0  0
   29.1364   -4.1662  -19.6100 O   0  0  0  0  0
   28.6822   -2.1822  -22.6442 O   0  0  0  0  0
   26.4986   -4.5135  -20.2293 O   0  0  0  0  0
   24.4376   -4.3052  -21.8087 O   0  0  0  0  0
   23.4376   -3.2326  -24.1001 O   0  0  0  0  0
   25.0849   -1.4615  -25.6835 O   0  0  0  0  0
   25.6048    0.7873  -25.7773 O   0  0  0  0  0
   24.9768    2.6312  -28.0347 O   0  0  0  0  0
   27.4379    0.1571  -28.8390 O   0  0  0  0  0
   25.4375   -1.6666  -28.4489 O   0  0  0  0  0
   34.7709   -1.4374  -20.9013 O   0  0  0  0  0
   31.5829   -5.3720  -18.3853 O   0  0  0  0  0
   31.4190   -3.6552  -16.8182 O   0  0  0  0  0
   34.6467   -2.1380  -17.2206 O   0  0  0  0  0
   33.4657   -4.1812  -14.6293 O   0  0  0  0  0
   33.6815   -6.3951  -16.3006 O   0  0  0  0  0
   29.3433   -7.6349  -16.9892 O   0  0  0  0  0
   31.0915   -8.3782  -20.0101 O   0  0  0  0  0
   26.4092  -12.1262  -18.5099 O   0  0  0  0  0
   24.7697  -12.7620  -20.6183 O   0  0  0  0  0
   26.6724  -13.6547  -22.5524 O   0  0  0  0  0
  2  1  1  0  0  0
  2  3  1  0  0  0
  2 41  1  0  0  0
  3  4  1  0  0  0
  3 64  1  0  0  0
  4  5  1  0  0  0
  4 63  1  0  0  0
  5  6  1  0  0  0
  5 62  1  0  0  0
  6 41  1  0  0  0
  6 42  1  0  0  0
  7 42  1  0  0  0
  8  7  1  0  0  0
  8  9  1  0  0  0
  8 43  1  0  0  0
  9 10  1  0  0  0
  9 61  1  0  0  0
 10 11  1  0  0  0
 10 60  1  0  0  0
 11 12  1  0  0  0
 11 55  1  0  0  0
 12 43  1  0  0  0
 12 44  1  0  0  0
 13 44  1  0  0  0
 14 45  1  0  0  0
 14 29  1  0  0  0
 15 45  1  0  0  0
 16 17  1  0  0  0
 17 49  1  0  0  0
 18 19  1  0  0  0
 18 48  1  0  0  0
 19 47  1  0  0  0
 20 21  1  0  0  0
 20 15  1  0  0  0
 21 13  1  0  0  0
 22 48  1  0  0  0
 23 49  1  0  0  0
 23 24  1  0  0  0
 23 50  1  0  0  0
 24 25  1  0  0  0
 24 53  1  0  0  0
 25 26  1  0  0  0
 25 52  1  0  0  0
 26 27  1  0  0  0
 26 51  1  0  0  0
 27 50  1  0  0  0
 27 28  1  0  0  0
 30 31  1  0  0  0
 32 33  1  0  0  0
 32 54  1  0  0  0
 34 29  1  0  0  0
 35 55  1  0  0  0
 35 36  1  0  0  0
 35 56  1  0  0  0
 36 37  1  0  0  0
 36 59  1  0  0  0
 37 38  1  0  0  0
 37 58  1  0  0  0
 38 39  1  0  0  0
 38 57  1  0  0  0
 39 56  1  0  0  0
 39 40  1  0  0  0
 13 14  2  0  0  0
 15 16  2  0  0  0
 17 18  2  0  0  0
 19 20  2  0  0  0
 21 46  2  0  0  0
 29 30  2  0  0  0
 31 32  2  0  0  0
 33 34  2  0  0  0
M  END
> <rmsd>
0.771434009

$$$$
MCULE-3405863462 MolPort-005-944-920 PubChem-45359707


 54 60  0  0  0  0  0  0  0  0999 V2000
   28.9774   -0.8378  -20.3284 C   0  0  0  0  0
   29.2371   -2.0039  -21.2813 C   0  0  0  0  0
   29.1338   -1.5151  -22.7337 C   0  0  0  0  0
   27.7111   -1.1680  -23.1464 C   0  0  0  0  0
   26.8193   -2.3963  -22.9989 C   0  0  0  0  0
   26.7523   -2.8504  -21.5281 C   0  0  0  0  0
   28.1902   -3.1222  -20.9924 C   0  0  0  0  0
   28.7449   -4.4863  -21.3945 C   0  0  0  0  0
   29.8658   -4.8673  -20.4318 C   0  0  0  0  0
   30.8827   -3.7343  -20.1432 C   0  0  0  0  0
   30.6934   -2.5300  -21.1048 C   0  0  0  0  0
   31.7397   -1.4144  -20.9253 C   0  0  0  0  0
   33.0916   -1.9023  -20.4830 C   0  0  0  0  0
   33.3738   -3.1745  -20.1600 C   0  0  0  0  0
   32.3389   -4.2868  -20.3024 C   0  0  0  0  0
   32.5912   -5.3854  -19.2530 C   0  0  0  0  0
   34.0522   -5.8244  -19.1917 C   0  0  0  0  0
   34.9799   -4.6681  -18.8085 C   0  0  0  0  0
   34.8077   -3.4902  -19.8124 C   0  0  0  0  0
   35.6550   -3.6784  -21.0726 C   0  0  0  0  0
   37.1540   -3.7283  -20.7458 C   0  0  0  0  0
   37.4401   -4.1971  -19.3125 C   0  0  0  0  0
   36.4136   -5.2296  -18.8441 C   0  0  0  0  0
   37.8303   -4.6692  -21.7221 C   0  0  0  0  0
   37.7418   -2.3437  -20.9249 C   0  0  0  0  0
   34.6901   -4.2269  -17.3921 C   0  0  0  0  0
   32.5167   -4.9048  -21.6923 C   0  0  0  0  0
   30.6368   -3.2629  -18.7070 C   0  0  0  0  0
   26.0851   -1.7690  -20.6787 C   0  0  0  0  0
   25.8792   -4.1098  -21.4353 C   0  0  0  0  0
   25.3557   -2.8168  -24.7177 C   0  0  0  0  0
   26.2566   -2.2875  -25.8584 C   0  0  0  0  0
   26.6898   -3.3901  -26.8398 C   0  0  0  0  0
   25.6012   -4.4701  -26.9869 C   0  0  0  0  0
   24.8873   -4.8071  -25.6639 C   0  0  0  0  0
   24.5256   -1.4270  -27.1006 C   0  0  0  0  0
   23.5094   -0.3219  -26.8020 C   0  0  0  0  0
   22.1814   -0.6577  -27.4824 C   0  0  0  0  0
   22.3905   -1.0853  -28.9369 C   0  0  0  0  0
   23.5345   -2.1045  -29.0103 C   0  0  0  0  0
   23.7776   -2.5254  -30.4491 C   0  0  0  0  0
   34.3919   -3.0302  -17.1298 O   0  0  0  0  0
   34.7558   -5.1500  -16.3543 O   0  0  0  0  0
   25.7918   -4.5706  -20.1184 O   0  0  0  0  0
   25.5357   -2.1123  -23.5065 O   0  0  0  0  0
   25.5077   -4.2076  -24.5514 O   0  0  0  0  0
   26.1196   -5.6288  -27.5670 O   0  0  0  0  0
   27.8801   -3.9605  -26.3822 O   0  0  0  0  0
   25.7553   -1.1263  -26.4891 O   0  0  0  0  0
   24.7096   -1.5333  -28.4903 O   0  0  0  0  0
   24.6885   -3.5814  -30.4844 O   0  0  0  0  0
   21.2110   -1.6532  -29.4228 O   0  0  0  0  0
   21.3344    0.4507  -27.4351 O   0  0  0  0  0
   23.3130   -0.2182  -25.4242 O   0  0  0  0  0
  2  1  1  0  0  0
  2  3  1  0  0  0
  3  4  1  0  0  0
  4  5  1  0  0  0
  5  6  1  0  0  0
  5 45  1  0  0  0
  6  7  1  0  0  0
  6 29  1  0  0  0
  6 30  1  0  0  0
  7  8  1  0  0  0
  7  2  1  0  0  0
  8  9  1  0  0  0
  9 10  1  0  0  0
 10 11  1  0  0  0
 10 28  1  0  0  0
 11 12  1  0  0  0
 11  2  1  0  0  0
 12 13  1  0  0  0
 15 14  1  0  0  0
 15 16  1  0  0  0
 15 27  1  0  0  0
 15 10  1  0  0  0
 16 17  1  0  0  0
 17 18  1  0  0  0
 18 19  1  0  0  0
 18 26  1  0  0  0
 19 20  1  0  0  0
 19 14  1  0  0  0
 20 21  1  0  0  0
 21 22  1  0  0  0
 21 24  1  0  0  0
 21 25  1  0  0  0
 22 23  1  0  0  0
 23 18  1  0  0  0
 26 43  1  0  0  0
 30 44  1  0  0  0
 31 45  1  0  0  0
 31 32  1  0  0  0
 31 46  1  0  0  0
 32 33  1  0  0  0
 32 49  1  0  0  0
 33 34  1  0  0  0
 33 48  1  0  0  0
 34 35  1  0  0  0
 34 47  1  0  0  0
 35 46  1  0  0  0
 36 49  1  0  0  0
 36 37  1  0  0  0
 36 50  1  0  0  0
 37 38  1  0  0  0
 37 54  1  0  0  0
 38 39  1  0  0  0
 38 53  1  0  0  0
 39 40  1  0  0  0
 39 52  1  0  0  0
 40 50  1  0  0  0
 40 41  1  0  0  0
 41 51  1  0  0  0
 13 14  2  0  0  0
 26 42  2  0  0  0
M  END
> <rmsd>
0.679653466

$$$$
MCULE-6372514264 CSC028169046 MolPort-009-649-018 PubChem-45837634


 35 38  0  0  0  0  0  0  0  0999 V2000
   35.5714   -5.1282  -18.5898 C   0  0  0  0  0
   32.6130   -3.3694  -19.2949 C   0  0  0  0  0
   33.6282   -2.5573  -19.8201 C   0  0  0  0  0
   33.3601   -1.6979  -20.8879 C   0  0  0  0  0
   32.0763   -1.6456  -21.4367 C   0  0  0  0  0
   31.0525   -2.4523  -20.9216 C   0  0  0  0  0
   31.3306   -3.3126  -19.8493 C   0  0  0  0  0
   29.7012   -2.3992  -21.5043 C   0  0  0  0  0
   27.8203   -1.8445  -22.8217 C   0  0  0  0  0
   29.3006   -1.4975  -22.6327 C   0  0  0  0  0
   27.5657   -2.3674  -24.2029 C   0  0  0  0  0
   28.2285   -3.5058  -24.6858 C   0  0  0  0  0
   27.9450   -3.9939  -25.9633 C   0  0  0  0  0
   26.9947   -3.3519  -26.7614 C   0  0  0  0  0
   26.3240   -2.2147  -26.2901 C   0  0  0  0  0
   26.6197   -1.7259  -25.0087 C   0  0  0  0  0
   25.0459   -3.8192  -22.7375 C   0  0  0  0  0
   25.3153   -4.9849  -23.4634 C   0  0  0  0  0
   24.5809   -5.2785  -24.6158 C   0  0  0  0  0
   23.5770   -4.4057  -25.0459 C   0  0  0  0  0
   23.3034   -3.2423  -24.3206 C   0  0  0  0  0
   24.0380   -2.9485  -23.1681 C   0  0  0  0  0
   34.4051   -4.4392  -17.4386 S   0  0  0  0  0
   26.0155   -3.4210  -21.3303 S   0  0  0  0  0
   34.2677   -5.3680  -16.2662 O   0  0  0  0  0
   34.8911   -3.1032  -16.9523 O   0  0  0  0  0
   25.0479   -2.0554  -28.3604 O   0  0  0  0  0
   24.7181   -0.5714  -26.6824 O   0  0  0  0  0
   26.1564   -4.6478  -20.4740 O   0  0  0  0  0
   25.3416   -2.3429  -20.5287 O   0  0  0  0  0
   32.8598   -4.2588  -18.2024 N   0  0  0  0  0
   28.7300   -3.1316  -21.0793 N   0  0  0  0  0
   27.5828   -2.8755  -21.8242 N   0  0  0  0  0
   25.3378   -1.5690  -27.1063 N   0  0  0  0  0
   22.6698   -4.7640  -26.4984 Cl  0  0  0  0  0
  1 23  1  0  0  0
  3  4  1  0  0  0
  5  6  1  0  0  0
  6  8  1  0  0  0
  7  2  1  0  0  0
  9 33  1  0  0  0
  9 10  1  0  0  0
  9 11  1  0  0  0
 10  8  1  0  0  0
 12 13  1  0  0  0
 14 15  1  0  0  0
 15 34  1  0  0  0
 16 11  1  0  0  0
 18 19  1  0  0  0
 20 35  1  0  0  0
 20 21  1  0  0  0
 22 17  1  0  0  0
 23 31  1  0  0  0
 24 33  1  0  0  0
 24 17  1  0  0  0
 31  2  1  0  0  0
 33 32  1  0  0  0
 34 27  1  0  0  0
  2  3  2  0  0  0
  4  5  2  0  0  0
  6  7  2  0  0  0
  8 32  2  0  0  0
 11 12  2  0  0  0
 13 14  2  0  0  0
 15 16  2  0  0  0
 17 18  2  0  0  0
 19 20  2  0  0  0
 21 22  2  0  0  0
 23 25  2  0  0  0
 23 26  2  0  0  0
 24 29  2  0  0  0
 24 30  2  0  0  0
 34 28  2  0  0  0
M  CHG  2  34   1  27  -1
M  END
> <rmsd>
0.646163583

$$$$
MCULE-6704121867


 56 61  0  0  0  0  0  0  0  0999 V2000
   29.2395    4.6286  -18.7395 C   0  0  0  0  0
   29.5392    4.3979  -20.2057 C   0  0  0  0  0
   29.7759    2.1118  -21.1338 C   0  0  0  0  0
   29.1598    0.9072  -21.5227 C   0  0  0  0  0
   27.6670    0.7432  -21.3883 C   0  0  0  0  0
   27.2448   -0.6164  -20.9010 C   0  0  0  0  0
   27.2142   -1.7243  -21.7633 C   0  0  0  0  0
   26.8799   -2.9892  -21.2734 C   0  0  0  0  0
   26.5797   -3.1641  -19.9180 C   0  0  0  0  0
   25.9872   -4.7398  -18.0889 C   0  0  0  0  0
   27.2877   -4.8376  -17.3110 C   0  0  0  0  0
   26.6099   -2.0549  -19.0550 C   0  0  0  0  0
   26.9450   -0.7893  -19.5452 C   0  0  0  0  0
   26.9082    1.2200  -22.5983 C   0  0  0  0  0
   25.8863    2.1772  -22.4677 C   0  0  0  0  0
   25.1931    2.6167  -23.6002 C   0  0  0  0  0
   25.5100    2.1110  -24.8618 C   0  0  0  0  0
   26.5261    1.1582  -24.9996 C   0  0  0  0  0
   26.8925    0.6098  -26.3428 C   0  0  0  0  0
   25.7538   -0.2300  -26.9418 C   0  0  0  0  0
   26.1875   -0.7739  -28.3045 C   0  0  0  0  0
   26.8255    0.3184  -29.1668 C   0  0  0  0  0
   27.8534    1.0944  -28.3318 C   0  0  0  0  0
   28.4841    2.1989  -29.1654 C   0  0  0  0  0
   27.2175    0.7153  -23.8695 C   0  0  0  0  0
   29.9389   -0.1214  -22.0717 C   0  0  0  0  0
   31.3213    0.0239  -22.2052 C   0  0  0  0  0
   32.1442   -1.1062  -22.7281 C   0  0  0  0  0
   32.2261   -2.2062  -21.7154 C   0  0  0  0  0
   31.3633   -3.3175  -21.7699 C   0  0  0  0  0
   31.4204   -4.2901  -20.7668 C   0  0  0  0  0
   32.3302   -4.1637  -19.7140 C   0  0  0  0  0
   33.2025   -3.0673  -19.6620 C   0  0  0  0  0
   34.1613   -2.8678  -18.5128 C   0  0  0  0  0
   34.8903   -4.1218  -17.9902 C   0  0  0  0  0
   33.9884   -4.9412  -17.0676 C   0  0  0  0  0
   33.2994   -4.0360  -16.0463 C   0  0  0  0  0
   32.6393   -2.8607  -16.7766 C   0  0  0  0  0
   31.9007   -1.9660  -15.7940 C   0  0  0  0  0
   33.1355   -2.0878  -20.6573 C   0  0  0  0  0
   31.9362    1.2131  -21.8045 C   0  0  0  0  0
   31.1671    2.2540  -21.2774 C   0  0  0  0  0
   28.9941    3.1482  -20.6100 O   0  0  0  0  0
   26.2549   -4.4453  -19.4576 O   0  0  0  0  0
   25.4495   -1.2984  -26.0951 O   0  0  0  0  0
   25.0859   -1.3187  -28.9692 O   0  0  0  0  0
   27.4514   -0.2735  -30.2669 O   0  0  0  0  0
   29.5150    2.8056  -28.4446 O   0  0  0  0  0
   27.2208    1.6663  -27.2130 O   0  0  0  0  0
   35.3518   -4.9104  -19.0489 O   0  0  0  0  0
   34.7472   -5.9067  -16.4048 O   0  0  0  0  0
   32.3331   -4.7763  -15.3587 O   0  0  0  0  0
   31.1325   -1.0314  -16.4911 O   0  0  0  0  0
   33.6089   -2.0940  -17.4634 O   0  0  0  0  0
   25.4608    2.8577  -20.9039 Cl  0  0  0  0  0
   30.1983   -3.5185  -23.0706 Cl  0  0  0  0  0
  1  2  1  0  0  0
  2 43  1  0  0  0
  3 43  1  0  0  0
  4 26  1  0  0  0
  5  4  1  0  0  0
  5  6  1  0  0  0
  5 14  1  0  0  0
  7  8  1  0  0  0
  9 44  1  0  0  0
  9 12  1  0  0  0
 10 44  1  0  0  0
 10 11  1  0  0  0
 13  6  1  0  0  0
 15 55  1  0  0  0
 15 16  1  0  0  0
 17 18  1  0  0  0
 19 18  1  0  0  0
 19 20  1  0  0  0
 19 49  1  0  0  0
 20 45  1  0  0  0
 20 21  1  0  0  0
 21 46  1  0  0  0
 21 22  1  0  0  0
 22 47  1  0  0  0
 22 23  1  0  0  0
 23 24  1  0  0  0
 23 49  1  0  0  0
 24 48  1  0  0  0
 25 14  1  0  0  0
 27 41  1  0  0  0
 28 27  1  0  0  0
 28 29  1  0  0  0
 30 56  1  0  0  0
 30 31  1  0  0  0
 32 33  1  0  0  0
 34 33  1  0  0  0
 34 35  1  0  0  0
 34 54  1  0  0  0
 35 50  1  0  0  0
 35 36  1  0  0  0
 36 51  1  0  0  0
 36 37  1  0  0  0
 37 52  1  0  0  0
 37 38  1  0  0  0
 38 39  1  0  0  0
 38 54  1  0  0  0
 39 53  1  0  0  0
 40 29  1  0  0  0
 42  3  1  0  0  0
  3  4  2  0  0  0
  6  7  2  0  0  0
  8  9  2  0  0  0
 12 13  2  0  0  0
 14 15  2  0  0  0
 16 17  2  0  0  0
 18 25  2  0  0  0
 26 27  2  0  0  0
 29 30  2  0  0  0
 31 32  2  0  0  0
 33 40  2  0  0  0
 41 42  2  0  0  0
M  END
> <rmsd>
0.688811779

$$$$
MCULE-9140397432 MolPort-047-114-031 NSC69862 PubChem-250396


 68 74  0  0  0  0  0  0  0  0999 V2000
   25.5311   -9.9359  -15.9687 C   0  0  0  0  0
   26.4657   -9.3226  -16.8135 C   0  0  0  0  0
   27.7529   -9.8669  -16.9229 C   0  0  0  0  0
   28.1055  -11.0050  -16.1930 C   0  0  0  0  0
   27.1688  -11.6211  -15.3537 C   0  0  0  0  0
   25.8783  -11.0829  -15.2407 C   0  0  0  0  0
   26.0978   -8.1636  -17.6405 C   0  0  0  0  0
   26.7745   -6.6938  -19.5225 C   0  0  0  0  0
   26.1842   -5.3493  -19.0812 C   0  0  0  0  0
   27.0668   -4.5274  -18.0991 C   0  0  0  0  0
   27.0114   -3.0388  -18.4946 C   0  0  0  0  0
   27.4712   -2.8657  -19.9470 C   0  0  0  0  0
   26.8867   -4.0083  -20.8147 C   0  0  0  0  0
   26.1422   -4.3717  -23.1419 C   0  0  0  0  0
   25.8316   -3.8189  -24.4674 C   0  0  0  0  0
   25.5376   -4.6730  -25.5410 C   0  0  0  0  0
   25.2580   -4.1514  -26.8047 C   0  0  0  0  0
   25.2720   -2.7636  -27.0097 C   0  0  0  0  0
   25.5418   -1.9040  -25.9365 C   0  0  0  0  0
   25.8231   -2.4319  -24.6719 C   0  0  0  0  0
   29.7113   -2.9051  -21.0819 C   0  0  0  0  0
   31.2001   -3.0364  -20.9659 C   0  0  0  0  0
   31.9245   -3.1665  -22.1648 C   0  0  0  0  0
   33.3132   -3.2292  -22.1752 C   0  0  0  0  0
   34.0299   -3.1327  -20.9863 C   0  0  0  0  0
   33.3505   -2.9809  -19.7744 C   0  0  0  0  0
   31.9296   -2.9753  -19.7436 C   0  0  0  0  0
   31.2652   -2.9859  -18.3819 C   0  0  0  0  0
   30.8407   -4.4135  -17.9578 C   0  0  0  0  0
   29.4472   -4.4119  -17.4092 C   0  0  0  0  0
   31.7889   -5.1543  -17.0110 C   0  0  0  0  0
   32.9840   -5.7030  -17.7154 C   0  0  0  0  0
   32.0310   -2.1428  -17.3395 C   0  0  0  0  0
   33.5102   -2.3981  -17.3993 C   0  0  0  0  0
   25.3884   -1.4731  -17.4801 C   0  0  0  0  0
   24.0725   -0.8164  -17.5717 C   0  0  0  0  0
   23.1503   -1.2205  -18.5480 C   0  0  0  0  0
   21.9097   -0.5790  -18.6625 C   0  0  0  0  0
   21.5821    0.4748  -17.8051 C   0  0  0  0  0
   22.5004    0.8845  -16.8323 C   0  0  0  0  0
   23.7390    0.2412  -16.7152 C   0  0  0  0  0
   24.9419  -11.6861  -14.4094 O   0  0  0  0  0
   27.5209  -12.7576  -14.6320 O   0  0  0  0  0
   29.3870  -11.5318  -16.3148 O   0  0  0  0  0
   24.9035   -7.7475  -17.6607 O   0  0  0  0  0
   27.0766   -7.5483  -18.4255 O   0  0  0  0  0
   25.7599   -4.6088  -20.2094 O   0  0  0  0  0
   26.5302   -3.5168  -22.1025 O   0  0  0  0  0
   26.1000   -5.6238  -22.9524 O   0  0  0  0  0
   25.5533   -0.5250  -26.1222 O   0  0  0  0  0
   25.0186   -2.2429  -28.2731 O   0  0  0  0  0
   24.9901   -5.0156  -27.8596 O   0  0  0  0  0
   28.9013   -2.9229  -19.9418 O   0  0  0  0  0
   29.1855   -2.7491  -22.2245 O   0  0  0  0  0
   29.1996   -3.8758  -16.2939 O   0  0  0  0  0
   28.4234   -4.9756  -18.1698 O   0  0  0  0  0
   32.8509   -6.3769  -18.7738 O   0  0  0  0  0
   34.2437   -5.5271  -17.1598 O   0  0  0  0  0
   34.2270   -2.2645  -16.3732 O   0  0  0  0  0
   34.0945   -2.8057  -18.6036 O   0  0  0  0  0
   31.5470   -2.3501  -16.0336 O   0  0  0  0  0
   35.4221   -3.1726  -21.0072 O   0  0  0  0  0
   33.9751   -3.3780  -23.3842 O   0  0  0  0  0
   25.6878   -2.5249  -18.3498 O   0  0  0  0  0
   26.2503   -1.0607  -16.6529 O   0  0  0  0  0
   22.1886    1.9300  -15.9733 O   0  0  0  0  0
   20.3478    1.1079  -17.9178 O   0  0  0  0  0
   21.0143   -0.9945  -19.6390 O   0  0  0  0  0
  2  3  1  0  0  0
  2  7  1  0  0  0
  4  5  1  0  0  0
  4 44  1  0  0  0
  5 43  1  0  0  0
  6 42  1  0  0  0
  6  1  1  0  0  0
  7 46  1  0  0  0
  8 46  1  0  0  0
  9  8  1  0  0  0
  9 10  1  0  0  0
  9 47  1  0  0  0
 10 11  1  0  0  0
 10 56  1  0  0  0
 11 12  1  0  0  0
 11 64  1  0  0  0
 12 13  1  0  0  0
 12 53  1  0  0  0
 13 47  1  0  0  0
 13 48  1  0  0  0
 14 48  1  0  0  0
 14 15  1  0  0  0
 16 17  1  0  0  0
 17 52  1  0  0  0
 18 19  1  0  0  0
 18 51  1  0  0  0
 19 50  1  0  0  0
 20 15  1  0  0  0
 21 53  1  0  0  0
 21 22  1  0  0  0
 23 24  1  0  0  0
 24 63  1  0  0  0
 25 26  1  0  0  0
 25 62  1  0  0  0
 26 60  1  0  0  0
 27 22  1  0  0  0
 28 27  1  0  0  0
 28 29  1  0  0  0
 28 33  1  0  0  0
 29 30  1  0  0  0
 29 31  1  0  0  0
 30 56  1  0  0  0
 31 32  1  0  0  0
 32 58  1  0  0  0
 33 34  1  0  0  0
 33 61  1  0  0  0
 34 60  1  0  0  0
 35 64  1  0  0  0
 35 36  1  0  0  0
 37 38  1  0  0  0
 38 68  1  0  0  0
 39 40  1  0  0  0
 39 67  1  0  0  0
 40 66  1  0  0  0
 41 36  1  0  0  0
  1  2  2  0  0  0
  3  4  2  0  0  0
  5  6  2  0  0  0
  7 45  2  0  0  0
 14 49  2  0  0  0
 15 16  2  0  0  0
 17 18  2  0  0  0
 19 20  2  0  0  0
 21 54  2  0  0  0
 22 23  2  0  0  0
 24 25  2  0  0  0
 26 27  2  0  0  0
 30 55  2  0  0  0
 32 57  2  0  0  0
 34 59  2  0  0  0
 35 65  2  0  0  0
 36 37  2  0  0  0
 38 39  2  0  0  0
 40 41  2  0  0  0
M  END
> <rmsd>
0.824864447

$$$$
MCULE-1726452636 CSC028036369 MolPort-044-401-190 PubChem-72035299


 35 38  0  0  0  0  0  0  0  0999 V2000
   33.5058   -6.9098  -15.2376 C   0  0  0  0  0
   33.0485   -5.0927  -16.8594 C   0  0  0  0  0
   33.4932   -3.9156  -17.4825 C   0  0  0  0  0
   32.6765   -3.2747  -18.4561 C   0  0  0  0  0
   31.3989   -3.8270  -18.7561 C   0  0  0  0  0
   30.9861   -5.0015  -18.1179 C   0  0  0  0  0
   31.8001   -5.6298  -17.1850 C   0  0  0  0  0
   30.4632   -3.1758  -19.6890 C   0  0  0  0  0
   27.1446   -3.5431  -21.1341 C   0  0  0  0  0
   26.2607   -2.8404  -22.0805 C   0  0  0  0  0
   24.9798   -3.3395  -22.3599 C   0  0  0  0  0
   24.1407   -2.6714  -23.2561 C   0  0  0  0  0
   24.5760   -1.4980  -23.8799 C   0  0  0  0  0
   25.8540   -0.9982  -23.6117 C   0  0  0  0  0
   26.6919   -1.6657  -22.7139 C   0  0  0  0  0
   23.6913   -0.7960  -24.8512 C   0  0  0  0  0
   23.5473   -2.6470  -27.8325 C   0  0  0  0  0
   23.0165   -3.6766  -28.7390 C   0  0  0  0  0
   21.9463   -4.4889  -28.3376 C   0  0  0  0  0
   21.4369   -5.4634  -29.2018 C   0  0  0  0  0
   21.9950   -5.6314  -30.4722 C   0  0  0  0  0
   23.0627   -4.8257  -30.8782 C   0  0  0  0  0
   23.5725   -3.8516  -30.0140 C   0  0  0  0  0
   32.7280   -1.5976  -20.3279 C   0  0  0  0  0
   35.3738   -2.2491  -17.5722 C   0  0  0  0  0
   33.8717   -5.7139  -15.9127 O   0  0  0  0  0
   26.7587   -4.6086  -20.5796 O   0  0  0  0  0
   33.1617   -2.1085  -19.0751 O   0  0  0  0  0
   34.7598   -3.4390  -17.0982 O   0  0  0  0  0
   29.2966   -3.6712  -19.9448 N   0  0  0  0  0
   28.4409   -3.0194  -20.8398 N   0  0  0  0  0
   23.8137   -1.4007  -26.1670 N   0  0  0  0  0
   23.0577   -2.3927  -26.6026 N   0  0  0  0  0
   24.5812   -1.8305  -28.1284 N   0  0  0  0  0
   24.7268   -1.0631  -27.0602 N   0  0  0  0  0
  1 26  1  0  0  0
  2 26  1  0  0  0
  3  4  1  0  0  0
  3 29  1  0  0  0
  4 28  1  0  0  0
  5  6  1  0  0  0
  5  8  1  0  0  0
  7  2  1  0  0  0
  9 10  1  0  0  0
 11 12  1  0  0  0
 13 14  1  0  0  0
 15 10  1  0  0  0
 16 13  1  0  0  0
 16 32  1  0  0  0
 17 34  1  0  0  0
 17 18  1  0  0  0
 19 20  1  0  0  0
 21 22  1  0  0  0
 23 18  1  0  0  0
 24 28  1  0  0  0
 25 29  1  0  0  0
 31 30  1  0  0  0
 31  9  1  0  0  0
 32 33  1  0  0  0
 32 35  1  0  0  0
  2  3  2  0  0  0
  4  5  2  0  0  0
  6  7  2  0  0  0
  8 30  2  0  0  0
  9 27  2  0  0  0
 10 11  2  0  0  0
 12 13  2  0  0  0
 14 15  2  0  0  0
 17 33  2  0  0  0
 18 19  2  0  0  0
 20 21  2  0  0  0
 22 23  2  0  0  0
 34 35  2  0  0  0
M  END
> <rmsd>
0.889851868

$$$$
MCULE-7866820332 PubChem-102402583


 46 49  0  0  0  0  0  0  0  0999 V2000
   38.5096   -3.0185  -18.3928 C   0  0  0  0  0
   37.3336   -3.7226  -17.7419 C   0  0  0  0  0
   37.3348   -5.2217  -18.0841 C   0  0  0  0  0
   36.1707   -5.9041  -17.3617 C   0  0  0  0  0
   34.8693   -5.1123  -17.5606 C   0  0  0  0  0
   35.1166   -3.6152  -17.3064 C   0  0  0  0  0
   33.2267   -2.6932  -18.6862 C   0  0  0  0  0
   32.0467   -1.9069  -18.7439 C   0  0  0  0  0
   31.3808   -1.7613  -19.9665 C   0  0  0  0  0
   31.8574   -2.3791  -21.1251 C   0  0  0  0  0
   33.0168   -3.1541  -21.0689 C   0  0  0  0  0
   33.6954   -3.3082  -19.8603 C   0  0  0  0  0
   31.1185   -2.2259  -22.4197 C   0  0  0  0  0
   30.0201   -3.2824  -22.6249 C   0  0  0  0  0
   30.6168   -4.6863  -22.6974 C   0  0  0  0  0
   28.9073   -3.1839  -21.5665 C   0  0  0  0  0
   28.2595   -1.7889  -21.5155 C   0  0  0  0  0
   27.4654   -1.4463  -22.7401 C   0  0  0  0  0
   28.1018   -1.1480  -23.9463 C   0  0  0  0  0
   27.3617   -0.8082  -25.0927 C   0  0  0  0  0
   25.9445   -0.7643  -25.0130 C   0  0  0  0  0
   25.3267   -1.0456  -23.7890 C   0  0  0  0  0
   26.0759   -1.3818  -22.6614 C   0  0  0  0  0
   25.4089   -0.2913  -27.4632 C   0  0  0  0  0
   25.9839   -1.5709  -28.0746 C   0  0  0  0  0
   26.7829   -1.3151  -29.3616 C   0  0  0  0  0
   26.6724    0.0962  -29.9655 C   0  0  0  0  0
   26.0432    1.1414  -29.0332 C   0  0  0  0  0
   26.6394    2.5055  -29.3193 C   0  0  0  0  0
   29.4454   -0.4553  -26.3868 C   0  0  0  0  0
   27.8508   -4.2737  -21.7415 C   0  0  0  0  0
   32.0035   -1.3147  -16.3114 C   0  0  0  0  0
   36.1286   -3.1241  -18.1548 O   0  0  0  0  0
   33.9189   -2.8525  -17.4741 O   0  0  0  0  0
   31.3733   -4.8240  -23.8618 O   0  0  0  0  0
   25.0849   -0.4429  -26.0804 O   0  0  0  0  0
   26.2385    0.8145  -27.6847 O   0  0  0  0  0
   25.9447    0.0367  -31.1543 O   0  0  0  0  0
   28.1250   -1.6243  -29.1469 O   0  0  0  0  0
   24.9504   -2.4701  -28.3348 O   0  0  0  0  0
   28.0289   -0.5133  -26.2850 O   0  0  0  0  0
   27.0610   -4.3599  -20.5948 O   0  0  0  0  0
   31.4893   -1.2527  -17.6350 O   0  0  0  0  0
   33.8718   -5.5922  -16.7102 O   0  0  0  0  0
   36.4724   -6.0190  -16.0013 O   0  0  0  0  0
   37.2067   -5.4075  -19.4635 O   0  0  0  0  0
  2  1  1  0  0  0
  2  3  1  0  0  0
  2 33  1  0  0  0
  3  4  1  0  0  0
  3 46  1  0  0  0
  4  5  1  0  0  0
  4 45  1  0  0  0
  5  6  1  0  0  0
  5 44  1  0  0  0
  6 33  1  0  0  0
  6 34  1  0  0  0
  7 34  1  0  0  0
  8  9  1  0  0  0
  8 43  1  0  0  0
 10 11  1  0  0  0
 12  7  1  0  0  0
 13 10  1  0  0  0
 14 13  1  0  0  0
 14 15  1  0  0  0
 14 16  1  0  0  0
 15 35  1  0  0  0
 16 17  1  0  0  0
 16 31  1  0  0  0
 17 18  1  0  0  0
 19 20  1  0  0  0
 20 41  1  0  0  0
 21 22  1  0  0  0
 21 36  1  0  0  0
 23 18  1  0  0  0
 24 36  1  0  0  0
 24 25  1  0  0  0
 24 37  1  0  0  0
 25 26  1  0  0  0
 25 40  1  0  0  0
 26 27  1  0  0  0
 26 39  1  0  0  0
 27 28  1  0  0  0
 27 38  1  0  0  0
 28 37  1  0  0  0
 28 29  1  0  0  0
 30 41  1  0  0  0
 31 42  1  0  0  0
 32 43  1  0  0  0
  7  8  2  0  0  0
  9 10  2  0  0  0
 11 12  2  0  0  0
 18 19  2  0  0  0
 20 21  2  0  0  0
 22 23  2  0  0  0
M  END
> <rmsd>
0.7419312

$$$$
MCULE-4065282540 PubChem-74530774


 31 33  0  0  0  0  0  0  0  0999 V2000
   24.3626   -2.4397  -22.2184 C   0  0  0  0  0
   25.1721   -3.5930  -22.7804 C   0  0  0  0  0
   27.2427   -3.3886  -21.3117 C   0  0  0  0  0
   28.6805   -3.1632  -21.3819 C   0  0  0  0  0
   29.4508   -3.1675  -20.2854 C   0  0  0  0  0
   30.9096   -2.9617  -20.1901 C   0  0  0  0  0
   31.4964   -3.0395  -18.9226 C   0  0  0  0  0
   32.8788   -2.8542  -18.7569 C   0  0  0  0  0
   33.6734   -2.5851  -19.8749 C   0  0  0  0  0
   33.0973   -2.5039  -21.1447 C   0  0  0  0  0
   31.7216   -2.6914  -21.3006 C   0  0  0  0  0
   32.7732   -3.2484  -16.3051 C   0  0  0  0  0
   32.4540   -4.7368  -16.2452 C   0  0  0  0  0
   33.6856   -5.5428  -16.0039 C   0  0  0  0  0
   27.5308   -3.1352  -23.6271 C   0  0  0  0  0
   27.9061   -2.7919  -26.0499 C   0  0  0  0  0
   29.2573   -3.1724  -26.1049 C   0  0  0  0  0
   30.0040   -3.0137  -27.2719 C   0  0  0  0  0
   29.4051   -2.4829  -28.4116 C   0  0  0  0  0
   28.0598   -2.1161  -28.3829 C   0  0  0  0  0
   27.2921   -2.2678  -27.2165 C   0  0  0  0  0
   25.8664   -1.8586  -27.2611 C   0  0  0  0  0
   26.5961   -3.3566  -22.5743 N   0  0  0  0  0
   27.1258   -3.0087  -24.8599 N   0  0  0  0  0
   26.6204   -3.6015  -20.2357 O   0  0  0  0  0
   33.4845   -2.9289  -17.4979 O   0  0  0  0  0
   34.5981   -5.5872  -16.8701 O   0  0  0  0  0
   33.8155   -6.2663  -14.8265 O   0  0  0  0  0
   25.3653   -1.4380  -28.3384 O   0  0  0  0  0
   25.0589   -1.9214  -26.1316 O   0  0  0  0  0
   29.2400   -2.9148  -23.0777 S   0  0  0  0  0
  1  2  1  0  0  0
  2 23  1  0  0  0
  3  4  1  0  0  0
  4 31  1  0  0  0
  5  6  1  0  0  0
  7  8  1  0  0  0
  8 26  1  0  0  0
  9 10  1  0  0  0
 11  6  1  0  0  0
 12 26  1  0  0  0
 12 13  1  0  0  0
 13 14  1  0  0  0
 14 28  1  0  0  0
 15 31  1  0  0  0
 15 23  1  0  0  0
 16 24  1  0  0  0
 17 18  1  0  0  0
 19 20  1  0  0  0
 21 22  1  0  0  0
 21 16  1  0  0  0
 22 30  1  0  0  0
 23  3  1  0  0  0
  3 25  2  0  0  0
  4  5  2  0  0  0
  6  7  2  0  0  0
  8  9  2  0  0  0
 10 11  2  0  0  0
 14 27  2  0  0  0
 15 24  2  0  0  0
 16 17  2  0  0  0
 18 19  2  0  0  0
 20 21  2  0  0  0
 22 29  2  0  0  0
M  END
> <rmsd>
0.823246121

$$$$
MCULE-1813141546 MolPort-046-594-400 PubChem-75183056


 40 43  0  0  0  0  0  0  0  0999 V2000
   23.8122   -5.1735  -29.8770 O   0  0  0  0  0
   23.6120   -3.9907  -26.4875 O   0  0  0  0  0
   24.4374   -3.2445  -24.4648 O   0  0  0  0  0
   26.6387   -4.1460  -20.2791 O   0  0  0  0  0
   35.0588   -1.7693  -21.2013 O   0  0  0  0  0
   32.6395   -3.7623  -17.4844 O   0  0  0  0  0
   34.2368   -2.4700  -16.3764 O   0  0  0  0  0
   33.5359   -1.2496  -13.8824 O   0  0  0  0  0
   37.3671   -3.1115  -14.8161 O   0  0  0  0  0
   36.8048   -3.4321  -17.5151 O   0  0  0  0  0
   34.5740   -6.0199  -16.6094 O   0  0  0  0  0
   25.0117   -0.7590  -26.3690 O   0  0  0  0  0
   21.6636   -1.7366  -26.9482 O   0  0  0  0  0
   24.2535   -2.0507  -29.3455 O   0  0  0  0  0
   23.2976   -5.0948  -28.5833 C   0  0  0  0  0
   23.8856   -3.8945  -27.8617 C   0  0  0  0  0
   24.4215   -3.0234  -25.8679 C   0  0  0  0  0
   25.6203   -3.2938  -23.7219 C   0  0  0  0  0
   25.5667   -3.7068  -22.3877 C   0  0  0  0  0
   26.7237   -3.7258  -21.6019 C   0  0  0  0  0
   27.9536   -3.3113  -22.1462 C   0  0  0  0  0
   29.1632   -3.2999  -21.3040 C   0  0  0  0  0
   30.3451   -2.8725  -21.7467 C   0  0  0  0  0
   31.5494   -2.8514  -20.9056 C   0  0  0  0  0
   32.7315   -2.3360  -21.4415 C   0  0  0  0  0
   33.8896   -2.2854  -20.6656 C   0  0  0  0  0
   33.8704   -2.7538  -19.3503 C   0  0  0  0  0
   32.6930   -3.2796  -18.8004 C   0  0  0  0  0
   33.7447   -3.7766  -16.5806 C   0  0  0  0  0
   35.0854   -2.4613  -15.2388 C   0  0  0  0  0
   34.2890   -2.4222  -13.9419 C   0  0  0  0  0
   36.1216   -3.6012  -15.2159 C   0  0  0  0  0
   36.2294   -4.2930  -16.5786 C   0  0  0  0  0
   34.8467   -4.7310  -17.0683 C   0  0  0  0  0
   31.5369   -3.3239  -19.5834 C   0  0  0  0  0
   28.0092   -2.9099  -23.4906 C   0  0  0  0  0
   26.8507   -2.9046  -24.2733 C   0  0  0  0  0
   23.9195   -1.6040  -26.1622 C   0  0  0  0  0
   22.9817   -1.5494  -27.3746 C   0  0  0  0  0
   23.3258   -2.5886  -28.4514 C   0  0  0  0  0
 15  1  1  0  0  0
 15 16  1  0  0  0
 16  2  1  0  0  0
 17  2  1  0  0  0
 17  3  1  0  0  0
 17 38  1  0  0  0
 18  3  1  0  0  0
 19 20  1  0  0  0
 20  4  1  0  0  0
 21 22  1  0  0  0
 21 36  1  0  0  0
 23 24  1  0  0  0
 25 26  1  0  0  0
 26  5  1  0  0  0
 27 28  1  0  0  0
 28  6  1  0  0  0
 29  6  1  0  0  0
 29  7  1  0  0  0
 30  7  1  0  0  0
 30 31  1  0  0  0
 30 32  1  0  0  0
 31  8  1  0  0  0
 32  9  1  0  0  0
 32 33  1  0  0  0
 33 10  1  0  0  0
 33 34  1  0  0  0
 34 11  1  0  0  0
 34 29  1  0  0  0
 35 24  1  0  0  0
 37 18  1  0  0  0
 38 12  1  0  0  0
 38 39  1  0  0  0
 39 13  1  0  0  0
 39 40  1  0  0  0
 40 14  1  0  0  0
 40 16  1  0  0  0
 18 19  2  0  0  0
 20 21  2  0  0  0
 22 23  2  0  0  0
 24 25  2  0  0  0
 26 27  2  0  0  0
 28 35  2  0  0  0
 36 37  2  0  0  0
M  END
> <rmsd>
0.512132049

$$$$
MCULE-8765920212 PubChem-71587576


 56 61  0  0  0  0  0  0  0  0999 V2000
   37.4356  -10.0708  -12.1461 C   0  0  0  0  0
   37.0262   -8.9376  -11.2701 C   0  0  0  0  0
   36.4503   -6.5620  -11.0462 C   0  0  0  0  0
   36.1572   -5.3923  -11.9269 C   0  0  0  0  0
   37.1141   -4.7193  -12.6137 C   0  0  0  0  0
   35.3541   -3.2635  -13.8881 C   0  0  0  0  0
   35.7306   -2.8024  -15.2080 C   0  0  0  0  0
   37.1288   -3.2359  -14.8937 C   0  0  0  0  0
   34.2520   -3.1407  -17.2287 C   0  0  0  0  0
   33.6148   -4.0556  -18.2182 C   0  0  0  0  0
   34.0781   -7.3783  -16.8275 C   0  0  0  0  0
   32.9479   -3.5209  -19.4269 C   0  0  0  0  0
   33.1665   -2.2301  -19.9243 C   0  0  0  0  0
   31.5816   -3.6096  -21.2033 C   0  0  0  0  0
   30.0738   -5.4814  -21.9345 C   0  0  0  0  0
   28.7866   -5.6062  -22.6782 C   0  0  0  0  0
   27.5966   -5.2443  -22.1425 C   0  0  0  0  0
   26.3303   -5.6087  -24.3991 C   0  0  0  0  0
   25.1426   -4.8079  -24.6101 C   0  0  0  0  0
   25.1936   -4.4631  -23.1523 C   0  0  0  0  0
   24.9504   -3.4461  -26.7356 C   0  0  0  0  0
   25.2476   -2.1911  -27.4745 C   0  0  0  0  0
   25.0289   -3.1442  -30.9724 C   0  0  0  0  0
   25.5602   -0.9460  -26.7381 C   0  0  0  0  0
   26.1139    0.1772  -27.3647 C   0  0  0  0  0
   25.6682    0.4090  -24.9544 C   0  0  0  0  0
   28.8787   -6.1057  -24.1001 C   0  0  0  0  0
   27.4366   -4.8013  -20.7320 C   0  0  0  0  0
   34.7014   -5.0081  -12.0457 C   0  0  0  0  0
   38.5729   -4.9889  -12.4751 C   0  0  0  0  0
   36.9672   -9.1062  -10.0242 O   0  0  0  0  0
   36.7419   -7.7024  -11.8414 O   0  0  0  0  0
   38.2221   -3.2053  -15.5151 O   0  0  0  0  0
   33.9511   -1.9154  -17.2178 O   0  0  0  0  0
   34.1468   -5.9700  -16.9480 O   0  0  0  0  0
   24.4752   -3.7739  -22.3799 O   0  0  0  0  0
   24.3101   -4.3800  -27.2899 O   0  0  0  0  0
   25.0203   -3.2635  -29.5612 O   0  0  0  0  0
   26.3626   -4.2608  -20.3598 O   0  0  0  0  0
   28.4356   -5.0054  -19.7886 O   0  0  0  0  0
   39.0138   -5.7926  -11.6082 O   0  0  0  0  0
   39.4849   -4.3247  -13.2870 O   0  0  0  0  0
   36.6705   -3.7652  -13.5875 N   0  0  0  0  0
   35.1941   -3.6370  -16.2769 N   0  0  0  0  0
   33.5915   -5.3447  -18.0406 N   0  0  0  0  0
   32.0716   -4.2816  -20.1425 N   0  0  0  0  0
   30.5993   -4.1363  -22.0926 N   0  0  0  0  0
   26.4684   -5.2067  -23.0242 N   0  0  0  0  0
   25.4013   -3.6029  -25.3890 N   0  0  0  0  0
   25.2617   -2.1582  -28.7764 N   0  0  0  0  0
   25.3085   -0.8078  -25.4037 N   0  0  0  0  0
   25.5100    0.8216  -23.6037 N   0  0  0  0  0
   32.2070   -2.0611  -21.3002 S   0  0  0  0  0
   26.2989    1.3632  -26.1756 S   0  0  0  0  0
   27.8622   -5.1324  -25.2750 S   0  0  0  0  0
   34.1836   -4.6656  -13.7705 S   0  0  0  0  0
  1  2  1  0  0  0
  2 32  1  0  0  0
  3 32  1  0  0  0
  3  4  1  0  0  0
  5 43  1  0  0  0
  5 30  1  0  0  0
  6 43  1  0  0  0
  6  7  1  0  0  0
  6 56  1  0  0  0
  7  8  1  0  0  0
  7 44  1  0  0  0
  8 43  1  0  0  0
  9 10  1  0  0  0
 10 12  1  0  0  0
 11 35  1  0  0  0
 12 46  1  0  0  0
 13 53  1  0  0  0
 14 53  1  0  0  0
 14 47  1  0  0  0
 15 47  1  0  0  0
 15 16  1  0  0  0
 17 48  1  0  0  0
 17 28  1  0  0  0
 18 48  1  0  0  0
 18 19  1  0  0  0
 18 55  1  0  0  0
 19 20  1  0  0  0
 19 49  1  0  0  0
 20 48  1  0  0  0
 21 22  1  0  0  0
 22 24  1  0  0  0
 23 38  1  0  0  0
 24 51  1  0  0  0
 25 54  1  0  0  0
 26 54  1  0  0  0
 26 52  1  0  0  0
 27 55  1  0  0  0
 27 16  1  0  0  0
 28 40  1  0  0  0
 29 56  1  0  0  0
 29  4  1  0  0  0
 30 42  1  0  0  0
 44  9  1  0  0  0
 45 35  1  0  0  0
 49 21  1  0  0  0
 50 38  1  0  0  0
  2 31  2  0  0  0
  4  5  2  0  0  0
  8 33  2  0  0  0
  9 34  2  0  0  0
 10 45  2  0  0  0
 12 13  2  0  0  0
 14 46  2  0  0  0
 16 17  2  0  0  0
 20 36  2  0  0  0
 21 37  2  0  0  0
 22 50  2  0  0  0
 24 25  2  0  0  0
 26 51  2  0  0  0
 28 39  2  0  0  0
 30 41  2  0  0  0
M  END
> <rmsd>
0.691121936

$$$$
MCULE-4738405612 MolPort-046-738-392 PubChem-137336835 ZINC001772702376


 41 46  0  0  0  0  0  0  0  0999 V2000
   25.0975   -5.0354  -24.9410 O   0  0  0  0  0
   24.1481   -2.1217  -28.9509 O   0  0  0  0  0
   29.1707   -1.8155  -19.5788 O   0  0  0  0  0
   34.5084   -2.5300  -22.2188 O   0  0  0  0  0
   33.7691   -2.9009  -17.4736 O   0  0  0  0  0
   33.9882   -5.4277  -16.3876 O   0  0  0  0  0
   27.0169   -4.7607  -20.1181 O   0  0  0  0  0
   25.6705   -3.9476  -24.6533 C   0  0  0  0  0
   25.5204   -2.8008  -25.5852 C   0  0  0  0  0
   25.9414   -1.5064  -25.2515 C   0  0  0  0  0
   25.1847   -0.6575  -27.3352 C   0  0  0  0  0
   24.7455   -1.9256  -27.7125 C   0  0  0  0  0
   24.9127   -2.9957  -26.8339 C   0  0  0  0  0
   27.3832   -2.8258  -23.1029 C   0  0  0  0  0
   27.8640   -3.1459  -21.7033 C   0  0  0  0  0
   29.8984   -2.3475  -20.4614 C   0  0  0  0  0
   31.3493   -2.4314  -20.2574 C   0  0  0  0  0
   32.2241   -2.4374  -21.3497 C   0  0  0  0  0
   33.6096   -2.5509  -21.1496 C   0  0  0  0  0
   34.0968   -2.3338  -23.5656 C   0  0  0  0  0
   35.3090   -2.3372  -24.4736 C   0  0  0  0  0
   35.0289   -1.4639  -25.6786 C   0  0  0  0  0
   35.8843   -0.9384  -24.5441 C   0  0  0  0  0
   34.1085   -2.6921  -19.8504 C   0  0  0  0  0
   33.2412   -2.7187  -18.7543 C   0  0  0  0  0
   31.8631   -2.5709  -18.9630 C   0  0  0  0  0
   32.9693   -3.2703  -16.3537 C   0  0  0  0  0
   32.9345   -4.7626  -16.2062 C   0  0  0  0  0
   30.4729   -4.7644  -15.5808 C   0  0  0  0  0
   29.5776   -4.8676  -16.7797 C   0  0  0  0  0
   30.0748   -5.1860  -18.0518 C   0  0  0  0  0
   29.2261   -5.1820  -19.1611 C   0  0  0  0  0
   27.8714   -4.8459  -19.0139 C   0  0  0  0  0
   27.3686   -4.5658  -17.7393 C   0  0  0  0  0
   28.2191   -4.5696  -16.6294 C   0  0  0  0  0
   27.4970   -4.6042  -21.4499 C   0  0  0  0  0
   26.3974   -4.9307  -22.4416 C   0  0  0  0  0
   25.7687   -0.4747  -26.1210 N   0  0  0  0  0
   26.4292   -3.8692  -23.4319 N   0  0  0  0  0
   29.3029   -2.9655  -21.6060 N   0  0  0  0  0
   31.7466   -5.4415  -15.7906 N   0  0  0  0  0
  8  9  1  0  0  0
  8 39  1  0  0  0
 10 38  1  0  0  0
 11 12  1  0  0  0
 12  2  1  0  0  0
 13  9  1  0  0  0
 14 39  1  0  0  0
 15 14  1  0  0  0
 15 40  1  0  0  0
 16 17  1  0  0  0
 17 18  1  0  0  0
 19  4  1  0  0  0
 19 24  1  0  0  0
 20  4  1  0  0  0
 20 21  1  0  0  0
 21 22  1  0  0  0
 22 23  1  0  0  0
 23 21  1  0  0  0
 25 26  1  0  0  0
 25  5  1  0  0  0
 27  5  1  0  0  0
 27 28  1  0  0  0
 28 41  1  0  0  0
 29 41  1  0  0  0
 29 30  1  0  0  0
 31 32  1  0  0  0
 33 34  1  0  0  0
 33  7  1  0  0  0
 35 30  1  0  0  0
 36  7  1  0  0  0
 36 37  1  0  0  0
 36 15  1  0  0  0
 37 39  1  0  0  0
 40 16  1  0  0  0
  8  1  2  0  0  0
  9 10  2  0  0  0
 11 38  2  0  0  0
 12 13  2  0  0  0
 16  3  2  0  0  0
 18 19  2  0  0  0
 24 25  2  0  0  0
 26 17  2  0  0  0
 28  6  2  0  0  0
 30 31  2  0  0  0
 32 33  2  0  0  0
 34 35  2  0  0  0
M  END
> <rmsd>
0.77555865

$$$$
MCULE-6883722572 MolPort-046-594-386 PubChem-13991179


 48 53  0  0  0  0  0  0  0  0999 V2000
   23.4673    1.1913  -23.4500 C   0  0  0  0  0
   24.6290   -0.9330  -23.9716 C   0  0  0  0  0
   25.0909   -1.8303  -24.9481 C   0  0  0  0  0
   25.0976   -2.5076  -27.3349 C   0  0  0  0  0
   25.6942   -2.6751  -29.5612 C   0  0  0  0  0
   27.1575   -3.0693  -29.3087 C   0  0  0  0  0
   24.7578   -3.8742  -29.8069 C   0  0  0  0  0
   24.4174   -4.6158  -28.5096 C   0  0  0  0  0
   24.0525   -3.6282  -27.4010 C   0  0  0  0  0
   25.8764   -2.9336  -24.5650 C   0  0  0  0  0
   26.1987   -3.1434  -23.2221 C   0  0  0  0  0
   25.7342   -2.2557  -22.2455 C   0  0  0  0  0
   24.9537   -1.1534  -22.6226 C   0  0  0  0  0
   26.0951   -2.4346  -20.8034 C   0  0  0  0  0
   26.9368   -4.3965  -20.0307 C   0  0  0  0  0
   28.0743   -3.4053  -19.9213 C   0  0  0  0  0
   27.5695   -2.1749  -20.5755 C   0  0  0  0  0
   27.7403   -1.0971  -19.5307 C   0  0  0  0  0
   28.2901   -3.0074  -18.4669 C   0  0  0  0  0
   29.7211   -3.1321  -18.0538 C   0  0  0  0  0
   30.7599   -2.6726  -18.8769 C   0  0  0  0  0
   32.0999   -2.7806  -18.4708 C   0  0  0  0  0
   32.9296   -1.8068  -20.5912 C   0  0  0  0  0
   32.4002   -3.3329  -17.2170 C   0  0  0  0  0
   34.1421   -3.8898  -15.5304 C   0  0  0  0  0
   35.5889   -3.6087  -13.8336 C   0  0  0  0  0
   36.7294   -2.7622  -13.2947 C   0  0  0  0  0
   35.8435   -5.1045  -13.5969 C   0  0  0  0  0
   34.6557   -5.9177  -14.1281 C   0  0  0  0  0
   34.1903   -5.4281  -15.5081 C   0  0  0  0  0
   31.3555   -3.7836  -16.3904 C   0  0  0  0  0
   30.0255   -3.6872  -16.8091 C   0  0  0  0  0
   23.8642    0.1743  -24.3617 O   0  0  0  0  0
   24.7742   -1.5970  -26.2916 O   0  0  0  0  0
   25.1774   -1.8112  -28.5613 O   0  0  0  0  0
   27.9630   -1.9276  -29.2968 O   0  0  0  0  0
   25.2806   -4.7458  -30.7696 O   0  0  0  0  0
   25.4876   -5.4144  -28.0990 O   0  0  0  0  0
   22.7859   -3.0944  -27.6385 O   0  0  0  0  0
   25.7438   -3.7203  -20.3500 O   0  0  0  0  0
   27.8339   -1.6982  -18.2629 O   0  0  0  0  0
   33.1442   -2.3429  -19.2931 O   0  0  0  0  0
   33.7412   -3.4136  -16.8113 O   0  0  0  0  0
   35.4026   -3.3576  -15.2048 O   0  0  0  0  0
   36.3783   -1.4158  -13.3553 O   0  0  0  0  0
   37.0163   -5.5100  -14.2382 O   0  0  0  0  0
   33.5973   -5.8433  -13.2221 O   0  0  0  0  0
   35.0569   -5.9040  -16.4985 O   0  0  0  0  0
  1 33  1  0  0  0
  2 33  1  0  0  0
  3 34  1  0  0  0
  3 10  1  0  0  0
  4 34  1  0  0  0
  4 35  1  0  0  0
  5 35  1  0  0  0
  5  6  1  0  0  0
  5  7  1  0  0  0
  6 36  1  0  0  0
  7 37  1  0  0  0
  7  8  1  0  0  0
  8 38  1  0  0  0
  8  9  1  0  0  0
  9 39  1  0  0  0
  9  4  1  0  0  0
 11 12  1  0  0  0
 13  2  1  0  0  0
 14 12  1  0  0  0
 14 40  1  0  0  0
 15 40  1  0  0  0
 15 16  1  0  0  0
 16 17  1  0  0  0
 17 18  1  0  0  0
 17 14  1  0  0  0
 18 41  1  0  0  0
 19 41  1  0  0  0
 19 20  1  0  0  0
 19 16  1  0  0  0
 21 22  1  0  0  0
 22 42  1  0  0  0
 23 42  1  0  0  0
 24 43  1  0  0  0
 24 31  1  0  0  0
 25 43  1  0  0  0
 25 44  1  0  0  0
 26 44  1  0  0  0
 26 27  1  0  0  0
 26 28  1  0  0  0
 27 45  1  0  0  0
 28 46  1  0  0  0
 28 29  1  0  0  0
 29 47  1  0  0  0
 29 30  1  0  0  0
 30 48  1  0  0  0
 30 25  1  0  0  0
 32 20  1  0  0  0
  2  3  2  0  0  0
 10 11  2  0  0  0
 12 13  2  0  0  0
 20 21  2  0  0  0
 22 24  2  0  0  0
 31 32  2  0  0  0
M  END
> <rmsd>
0.789578497

$$$$
MCULE-8681385857 CHEMBL1744031 PubChem-5490298 ZINC000072129823


 43 47  0  0  0  0  0  0  0  0999 V2000
   26.2473   -4.4817  -19.1163 O   0  0  0  0  0
   34.2997   -1.1308  -19.6501 O   0  0  0  0  0
   32.6229   -2.1206  -17.4653 O   0  0  0  0  0
   34.8607   -2.7903  -17.2153 O   0  0  0  0  0
   34.7030   -6.3158  -16.4616 O   0  0  0  0  0
   35.8624   -3.4854  -14.6086 O   0  0  0  0  0
   32.3246   -2.8948  -14.5839 O   0  0  0  0  0
   35.0489   -0.6533  -15.1928 O   0  0  0  0  0
   28.3736   -2.3814  -21.7846 O   0  0  0  0  0
   24.7353   -2.2062  -24.9084 O   0  0  0  0  0
   24.5981   -0.8637  -26.8274 O   0  0  0  0  0
   21.7921   -0.6927  -27.4133 O   0  0  0  0  0
   25.3573   -1.8749  -29.3870 O   0  0  0  0  0
   25.3639   -4.4347  -26.8717 O   0  0  0  0  0
   27.4416   -1.5475  -27.2570 O   0  0  0  0  0
   24.1497   -4.4724  -20.7148 O   0  0  0  0  0
   26.8896   -3.8105  -19.9651 C   0  0  0  0  0
   28.2047   -3.4480  -19.6841 C   0  0  0  0  0
   28.9386   -2.7198  -20.6276 C   0  0  0  0  0
   30.3328   -2.3204  -20.3535 C   0  0  0  0  0
   31.1318   -1.8206  -21.3872 C   0  0  0  0  0
   32.4491   -1.4347  -21.1388 C   0  0  0  0  0
   32.9854   -1.5336  -19.8522 C   0  0  0  0  0
   32.1865   -2.0254  -18.7938 C   0  0  0  0  0
   33.9200   -1.7562  -16.9987 C   0  0  0  0  0
   34.4457   -3.9406  -16.5094 C   0  0  0  0  0
   35.2759   -5.1391  -16.9434 C   0  0  0  0  0
   34.5390   -3.7134  -14.9925 C   0  0  0  0  0
   33.6686   -2.5203  -14.5910 C   0  0  0  0  0
   33.8705   -1.3238  -15.5270 C   0  0  0  0  0
   30.8721   -2.4188  -19.0639 C   0  0  0  0  0
   27.1185   -2.6914  -22.0944 C   0  0  0  0  0
   26.5990   -2.2887  -23.3263 C   0  0  0  0  0
   25.2801   -2.6021  -23.6816 C   0  0  0  0  0
   25.4680   -1.4762  -25.8945 C   0  0  0  0  0
   23.8679   -1.8715  -27.4912 C   0  0  0  0  0
   22.7239   -1.2609  -28.2830 C   0  0  0  0  0
   24.7847   -2.6901  -28.4064 C   0  0  0  0  0
   25.8848   -3.3455  -27.5706 C   0  0  0  0  0
   26.5226   -2.3556  -26.5876 C   0  0  0  0  0
   24.4845   -3.3270  -22.7938 C   0  0  0  0  0
   24.9839   -3.7443  -21.5569 C   0  0  0  0  0
   26.3122   -3.4263  -21.1904 C   0  0  0  0  0
 17 18  1  0  0  0
 19 20  1  0  0  0
 19  9  1  0  0  0
 21 22  1  0  0  0
 23  2  1  0  0  0
 23 24  1  0  0  0
 24  3  1  0  0  0
 25  3  1  0  0  0
 25  4  1  0  0  0
 26  4  1  0  0  0
 26 27  1  0  0  0
 26 28  1  0  0  0
 27  5  1  0  0  0
 28  6  1  0  0  0
 28 29  1  0  0  0
 29  7  1  0  0  0
 29 30  1  0  0  0
 30  8  1  0  0  0
 30 25  1  0  0  0
 31 20  1  0  0  0
 32  9  1  0  0  0
 33 34  1  0  0  0
 34 10  1  0  0  0
 35 10  1  0  0  0
 35 11  1  0  0  0
 36 11  1  0  0  0
 36 37  1  0  0  0
 36 38  1  0  0  0
 37 12  1  0  0  0
 38 13  1  0  0  0
 38 39  1  0  0  0
 39 14  1  0  0  0
 39 40  1  0  0  0
 40 15  1  0  0  0
 40 35  1  0  0  0
 41 42  1  0  0  0
 42 16  1  0  0  0
 43 17  1  0  0  0
 43 32  1  0  0  0
 17  1  2  0  0  0
 18 19  2  0  0  0
 20 21  2  0  0  0
 22 23  2  0  0  0
 24 31  2  0  0  0
 32 33  2  0  0  0
 34 41  2  0  0  0
 42 43  2  0  0  0
M  END
> <rmsd>
0.716381311

$$$$
MCULE-5647744737 CSC028169045 LN01403866 MolPort-002-459-039 PubChem-3538161


 35 38  0  0  0  0  0  0  0  0999 V2000
   35.5942   -5.0531  -18.6349 C   0  0  0  0  0
   32.6047   -3.3499  -19.3004 C   0  0  0  0  0
   33.6081   -2.5089  -19.8021 C   0  0  0  0  0
   33.3303   -1.6314  -20.8528 C   0  0  0  0  0
   32.0484   -1.5903  -21.4075 C   0  0  0  0  0
   31.0361   -2.4247  -20.9148 C   0  0  0  0  0
   31.3239   -3.3033  -19.8597 C   0  0  0  0  0
   29.6874   -2.3827  -21.5044 C   0  0  0  0  0
   27.8092   -1.8416  -22.8317 C   0  0  0  0  0
   29.2823   -1.4742  -22.6262 C   0  0  0  0  0
   27.5737   -2.3566  -24.2192 C   0  0  0  0  0
   28.2689   -3.4718  -24.7106 C   0  0  0  0  0
   28.0052   -3.9532  -25.9947 C   0  0  0  0  0
   27.0434   -3.3268  -26.7917 C   0  0  0  0  0
   26.3400   -2.2133  -26.3117 C   0  0  0  0  0
   26.6143   -1.7325  -25.0224 C   0  0  0  0  0
   25.1749   -4.0826  -22.8096 C   0  0  0  0  0
   25.5952   -5.2700  -23.4194 C   0  0  0  0  0
   24.9535   -5.7310  -24.5731 C   0  0  0  0  0
   23.8928   -5.0035  -25.1208 C   0  0  0  0  0
   23.4693   -3.8183  -24.5120 C   0  0  0  0  0
   24.1103   -3.3577  -23.3581 C   0  0  0  0  0
   34.4083   -4.4345  -17.4639 S   0  0  0  0  0
   26.0184   -3.4810  -21.3936 S   0  0  0  0  0
   34.2874   -5.4112  -16.3288 O   0  0  0  0  0
   34.8611   -3.1074  -16.9237 O   0  0  0  0  0
   25.0765   -2.0604  -28.3905 O   0  0  0  0  0
   24.6996   -0.6031  -26.6986 O   0  0  0  0  0
   26.1736   -4.6023  -20.4047 O   0  0  0  0  0
   25.2291   -2.3742  -20.7521 O   0  0  0  0  0
   32.8623   -4.2594  -18.2271 N   0  0  0  0  0
   28.7241   -3.1339  -21.0949 N   0  0  0  0  0
   27.5794   -2.8847  -21.8460 N   0  0  0  0  0
   25.3446   -1.5821  -27.1280 N   0  0  0  0  0
   23.2743   -5.4480  -26.2409 F   0  0  0  0  0
  1 23  1  0  0  0
  3  4  1  0  0  0
  5  6  1  0  0  0
  6  8  1  0  0  0
  7  2  1  0  0  0
  9 33  1  0  0  0
  9 10  1  0  0  0
  9 11  1  0  0  0
 10  8  1  0  0  0
 12 13  1  0  0  0
 14 15  1  0  0  0
 15 34  1  0  0  0
 16 11  1  0  0  0
 18 19  1  0  0  0
 20 35  1  0  0  0
 20 21  1  0  0  0
 22 17  1  0  0  0
 23 31  1  0  0  0
 24 33  1  0  0  0
 24 17  1  0  0  0
 31  2  1  0  0  0
 33 32  1  0  0  0
 34 27  1  0  0  0
  2  3  2  0  0  0
  4  5  2  0  0  0
  6  7  2  0  0  0
  8 32  2  0  0  0
 11 12  2  0  0  0
 13 14  2  0  0  0
 15 16  2  0  0  0
 17 18  2  0  0  0
 19 20  2  0  0  0
 21 22  2  0  0  0
 23 25  2  0  0  0
 23 26  2  0  0  0
 24 29  2  0  0  0
 24 30  2  0  0  0
 34 28  2  0  0  0
M  CHG  2  34   1  27  -1
M  END
> <rmsd>
0.615307331

$$$$
MCULE-2146063816 MCULE-2834095244 MolPort-039-338-459 PubChem-90657714 ZINC000253387915


 64 70  0  0  0  0  0  0  0  0999 V2000
   27.8560   -3.1806  -13.0967 C   0  0  0  0  0
   26.8868   -2.8153  -14.1767 C   0  0  0  0  0
   27.0806   -3.1668  -15.4530 C   0  0  0  0  0
   28.2717   -3.9468  -15.9091 C   0  0  0  0  0
   28.1826   -4.1739  -17.4114 C   0  0  0  0  0
   29.4141   -4.8924  -17.9687 C   0  0  0  0  0
   29.3669   -6.3303  -17.4131 C   0  0  0  0  0
   29.2676   -4.9457  -19.5069 C   0  0  0  0  0
   30.4192   -5.6845  -20.1722 C   0  0  0  0  0
   30.9365   -4.8038  -21.2906 C   0  0  0  0  0
   30.4193   -3.3877  -21.0510 C   0  0  0  0  0
   29.1760   -3.5551  -20.1525 C   0  0  0  0  0
   27.8497   -3.3684  -20.9151 C   0  0  0  0  0
   27.9017   -4.0459  -22.2748 C   0  0  0  0  0
   28.9831   -3.4296  -23.1913 C   0  0  0  0  0
   30.1125   -2.6677  -22.4091 C   0  0  0  0  0
   29.6834   -1.2108  -22.1235 C   0  0  0  0  0
   29.1886   -0.4776  -23.3618 C   0  0  0  0  0
   27.9945   -1.2251  -23.9576 C   0  0  0  0  0
   28.3892   -2.6582  -24.4081 C   0  0  0  0  0
   27.1566   -3.4016  -24.9579 C   0  0  0  0  0
   26.4455   -2.6243  -26.0623 C   0  0  0  0  0
   26.0312   -1.2498  -25.5287 C   0  0  0  0  0
   27.2021   -0.3933  -24.9961 C   0  0  0  0  0
   28.1178    0.0771  -26.1228 C   0  0  0  0  0
   26.6264    0.8345  -24.3075 C   0  0  0  0  0
   25.5619   -0.3898  -27.6186 C   0  0  0  0  0
   24.5918   -1.0190  -28.6270 C   0  0  0  0  0
   24.5059   -0.2174  -29.9343 C   0  0  0  0  0
   25.8083    0.5231  -30.2735 C   0  0  0  0  0
   26.5282    1.0634  -29.0256 C   0  0  0  0  0
   26.9372    2.5060  -29.2635 C   0  0  0  0  0
   29.4344   -2.6268  -25.5237 C   0  0  0  0  0
   31.3879   -2.6329  -23.2555 C   0  0  0  0  0
   31.4752   -2.6208  -20.2583 C   0  0  0  0  0
   31.6770   -4.9335  -17.2741 C   0  0  0  0  0
   32.8791   -4.5626  -18.1723 C   0  0  0  0  0
   34.1053   -4.1283  -17.3621 C   0  0  0  0  0
   34.3488   -5.0407  -16.1543 C   0  0  0  0  0
   33.0398   -5.6176  -15.6025 C   0  0  0  0  0
   33.1667   -5.7917  -14.0995 C   0  0  0  0  0
   32.7708   -7.8821  -13.4644 C   0  0  0  0  0
   33.1599   -8.1085  -12.0228 C   0  0  0  0  0
   33.0493   -9.5882  -11.8893 C   0  0  0  0  0
   32.0470   -9.9685  -12.9551 C   0  0  0  0  0
   32.5256  -11.2085  -13.6900 C   0  0  0  0  0
   25.6690   -2.0341  -13.8182 C   0  0  0  0  0
   25.0713   -0.5653  -26.3148 O   0  0  0  0  0
   25.7130    0.9823  -27.8817 O   0  0  0  0  0
   27.7289    2.9574  -28.2063 O   0  0  0  0  0
   26.6645   -0.3281  -30.9730 O   0  0  0  0  0
   23.4566    0.6999  -29.8488 O   0  0  0  0  0
   24.9825   -2.3261  -28.9056 O   0  0  0  0  0
   26.7623   -3.8406  -20.1777 O   0  0  0  0  0
   30.5687   -4.1301  -17.6102 O   0  0  0  0  0
   31.9624   -4.7664  -15.9003 O   0  0  0  0  0
   32.1583   -6.6342  -13.6189 O   0  0  0  0  0
   31.8836   -8.8986  -13.8610 O   0  0  0  0  0
   31.5317  -11.6543  -14.5617 O   0  0  0  0  0
   32.5565   -9.9178  -10.6260 O   0  0  0  0  0
   34.4826   -7.7113  -11.8178 O   0  0  0  0  0
   35.1929   -6.0879  -16.5213 O   0  0  0  0  0
   33.9376   -2.8123  -16.9284 O   0  0  0  0  0
   33.2174   -5.6573  -18.9714 O   0  0  0  0  0
  1  2  1  0  0  0
  4  3  1  0  0  0
  4  5  1  0  0  0
  6  5  1  0  0  0
  6  7  1  0  0  0
  6  8  1  0  0  0
  6 55  1  0  0  0
  8  9  1  0  0  0
  9 10  1  0  0  0
 10 11  1  0  0  0
 11 12  1  0  0  0
 11 35  1  0  0  0
 12 13  1  0  0  0
 12  8  1  0  0  0
 13 14  1  0  0  0
 13 54  1  0  0  0
 15 14  1  0  0  0
 15 16  1  0  0  0
 16 17  1  0  0  0
 16 34  1  0  0  0
 16 11  1  0  0  0
 17 18  1  0  0  0
 19 18  1  0  0  0
 19 20  1  0  0  0
 20 21  1  0  0  0
 20 33  1  0  0  0
 20 15  1  0  0  0
 21 22  1  0  0  0
 22 23  1  0  0  0
 23 24  1  0  0  0
 23 48  1  0  0  0
 24 25  1  0  0  0
 24 26  1  0  0  0
 24 19  1  0  0  0
 27 48  1  0  0  0
 27 28  1  0  0  0
 27 49  1  0  0  0
 28 29  1  0  0  0
 28 53  1  0  0  0
 29 30  1  0  0  0
 29 52  1  0  0  0
 30 31  1  0  0  0
 30 51  1  0  0  0
 31 49  1  0  0  0
 31 32  1  0  0  0
 32 50  1  0  0  0
 36 55  1  0  0  0
 36 37  1  0  0  0
 36 56  1  0  0  0
 37 38  1  0  0  0
 37 64  1  0  0  0
 38 39  1  0  0  0
 38 63  1  0  0  0
 39 40  1  0  0  0
 39 62  1  0  0  0
 40 56  1  0  0  0
 40 41  1  0  0  0
 41 57  1  0  0  0
 42 57  1  0  0  0
 42 43  1  0  0  0
 42 58  1  0  0  0
 43 44  1  0  0  0
 43 61  1  0  0  0
 44 45  1  0  0  0
 44 60  1  0  0  0
 45 58  1  0  0  0
 45 46  1  0  0  0
 46 59  1  0  0  0
 47  2  1  0  0  0
  2  3  2  0  0  0
M  END
> <rmsd>
0.559486449

$$$$
MCULE-6330142641 MCULE-8273713251 CHEMBL3792981 LN01345245 MolPort-020-005-636 PubChem-21637642 ZINC000085643336


 55 61  0  0  0  0  0  0  0  0999 V2000
   24.6606   -6.9010  -25.0848 C   0  0  0  0  0
   24.8037   -5.4235  -25.3928 C   0  0  0  0  0
   25.2781   -3.3813  -24.5255 C   0  0  0  0  0
   26.9057   -2.9832  -22.9479 C   0  0  0  0  0
   27.8818   -1.8614  -23.2957 C   0  0  0  0  0
   29.3030   -2.2965  -22.9597 C   0  0  0  0  0
   29.4639   -2.5906  -21.4636 C   0  0  0  0  0
   29.3028   -1.2865  -20.6806 C   0  0  0  0  0
   28.4125   -3.6526  -21.0436 C   0  0  0  0  0
   28.6074   -4.1154  -19.5972 C   0  0  0  0  0
   29.9777   -4.7759  -19.4549 C   0  0  0  0  0
   31.1229   -3.8068  -19.8003 C   0  0  0  0  0
   31.1623   -2.7133  -18.7256 C   0  0  0  0  0
   30.8665   -3.1870  -21.2099 C   0  0  0  0  0
   32.0364   -2.4146  -21.7811 C   0  0  0  0  0
   33.2834   -2.5969  -21.3385 C   0  0  0  0  0
   33.5804   -3.5396  -20.2330 C   0  0  0  0  0
   34.7508   -3.4367  -19.5724 C   0  0  0  0  0
   35.9640   -2.8794  -20.2654 C   0  0  0  0  0
   36.9723   -4.0103  -20.5279 C   0  0  0  0  0
   36.4696   -4.9178  -21.6405 C   0  0  0  0  0
   38.2775   -3.3890  -20.9791 C   0  0  0  0  0
   37.2419   -4.8378  -19.2565 C   0  0  0  0  0
   35.9524   -5.3076  -18.5511 C   0  0  0  0  0
   35.0116   -4.1292  -18.2539 C   0  0  0  0  0
   35.7124   -3.1634  -17.2835 C   0  0  0  0  0
   33.7001   -4.5844  -17.5868 C   0  0  0  0  0
   32.7928   -5.3246  -18.5505 C   0  0  0  0  0
   32.4965   -4.5472  -19.8457 C   0  0  0  0  0
   32.4743   -5.6195  -20.9359 C   0  0  0  0  0
   26.9425   -3.3472  -21.4474 C   0  0  0  0  0
   26.3595   -2.2034  -20.6139 C   0  0  0  0  0
   26.0771   -4.6029  -21.2711 C   0  0  0  0  0
   26.0587   -2.9010  -25.7651 C   0  0  0  0  0
   25.6338   -3.7121  -26.9911 C   0  0  0  0  0
   25.6487   -3.2082  -29.1564 C   0  0  0  0  0
   26.9727   -3.7516  -31.0359 C   0  0  0  0  0
   28.3257   -3.7866  -30.3332 C   0  0  0  0  0
   26.7339   -2.4120  -31.7433 C   0  0  0  0  0
   25.6111   -1.6116  -31.0941 C   0  0  0  0  0
   25.7049   -1.7336  -29.5816 C   0  0  0  0  0
   25.6079   -5.2136  -26.6808 C   0  0  0  0  0
   25.4298   -4.7713  -24.3159 O   0  0  0  0  0
   25.6034   -2.6394  -23.3652 O   0  0  0  0  0
   34.9264   -2.0312  -17.0415 O   0  0  0  0  0
   33.9521   -5.3864  -16.4715 O   0  0  0  0  0
   25.8548   -4.9043  -19.9254 O   0  0  0  0  0
   25.8034   -1.5470  -25.9893 O   0  0  0  0  0
   26.4901   -3.4442  -28.0642 O   0  0  0  0  0
   25.8970   -4.1468  -30.1976 O   0  0  0  0  0
   28.6042   -5.0854  -29.9081 O   0  0  0  0  0
   26.4291   -2.6433  -33.0840 O   0  0  0  0  0
   25.7100   -0.2716  -31.4732 O   0  0  0  0  0
   24.6581   -1.0367  -28.9776 O   0  0  0  0  0
   26.9107   -5.6985  -26.5256 O   0  0  0  0  0
  2  1  1  0  0  0
  2 43  1  0  0  0
  3 43  1  0  0  0
  3 44  1  0  0  0
  3 34  1  0  0  0
  4 44  1  0  0  0
  4  5  1  0  0  0
  5  6  1  0  0  0
  6  7  1  0  0  0
  7  8  1  0  0  0
  7  9  1  0  0  0
  9 10  1  0  0  0
  9 31  1  0  0  0
 10 11  1  0  0  0
 11 12  1  0  0  0
 12 13  1  0  0  0
 12 14  1  0  0  0
 14 15  1  0  0  0
 14  7  1  0  0  0
 16 17  1  0  0  0
 19 18  1  0  0  0
 19 20  1  0  0  0
 20 21  1  0  0  0
 20 22  1  0  0  0
 20 23  1  0  0  0
 23 24  1  0  0  0
 24 25  1  0  0  0
 25 26  1  0  0  0
 25 27  1  0  0  0
 25 18  1  0  0  0
 26 45  1  0  0  0
 27 46  1  0  0  0
 27 28  1  0  0  0
 28 29  1  0  0  0
 29 30  1  0  0  0
 29 17  1  0  0  0
 29 12  1  0  0  0
 31 32  1  0  0  0
 31 33  1  0  0  0
 31  4  1  0  0  0
 33 47  1  0  0  0
 34 48  1  0  0  0
 34 35  1  0  0  0
 35 49  1  0  0  0
 35 42  1  0  0  0
 36 49  1  0  0  0
 36 50  1  0  0  0
 37 50  1  0  0  0
 37 38  1  0  0  0
 37 39  1  0  0  0
 38 51  1  0  0  0
 39 52  1  0  0  0
 39 40  1  0  0  0
 40 53  1  0  0  0
 40 41  1  0  0  0
 41 54  1  0  0  0
 41 36  1  0  0  0
 42 55  1  0  0  0
 42  2  1  0  0  0
 15 16  2  0  0  0
 17 18  2  0  0  0
M  END
> <rmsd>
0.923666775

$$$$
MCULE-7084372655 MCULE-7788978222 PubChem-217596 PubChem-217597


 40 43  0  0  0  0  0  0  0  0999 V2000
   24.2995   -0.2742  -25.1367 C   0  0  0  0  0
   25.6740   -1.8439  -26.4723 C   0  0  0  0  0
   26.4641   -2.1756  -25.3625 C   0  0  0  0  0
   27.5077   -3.0947  -25.4760 C   0  0  0  0  0
   27.7622   -3.6875  -26.7150 C   0  0  0  0  0
   26.9874   -3.3740  -27.8432 C   0  0  0  0  0
   25.9279   -2.4387  -27.7202 C   0  0  0  0  0
   25.2098   -2.5594  -30.1195 C   0  0  0  0  0
   28.3125   -4.9259  -29.2527 C   0  0  0  0  0
   28.3264   -3.4315  -24.3009 C   0  0  0  0  0
   28.8185   -3.0915  -21.9017 C   0  0  0  0  0
   28.0381   -2.6469  -20.6746 C   0  0  0  0  0
   25.8795   -2.7368  -19.7711 C   0  0  0  0  0
   25.6119   -3.3666  -18.4198 C   0  0  0  0  0
   26.2356   -4.7296  -18.5027 C   0  0  0  0  0
   27.3205   -4.5673  -19.5365 C   0  0  0  0  0
   30.1468   -2.3459  -21.9669 C   0  0  0  0  0
   31.6200   -4.0464  -20.9605 C   0  0  0  0  0
   32.4820   -4.4473  -19.9287 C   0  0  0  0  0
   33.0743   -5.7086  -19.9328 C   0  0  0  0  0
   33.9346   -6.1103  -18.9036 C   0  0  0  0  0
   34.2139   -5.2205  -17.8321 C   0  0  0  0  0
   33.6125   -3.9307  -17.8243 C   0  0  0  0  0
   32.7526   -3.5602  -18.8747 C   0  0  0  0  0
   32.1512   -2.3011  -18.8945 C   0  0  0  0  0
   34.6635   -3.1694  -15.6680 C   0  0  0  0  0
   35.7423   -6.8147  -16.6283 C   0  0  0  0  0
   34.2671   -8.3176  -19.9891 C   0  0  0  0  0
   24.6268   -0.9222  -26.3586 O   0  0  0  0  0
   25.1008   -2.0641  -28.7928 O   0  0  0  0  0
   27.2640   -3.9828  -29.0729 O   0  0  0  0  0
   29.2657   -4.2685  -24.4034 O   0  0  0  0  0
   28.0543   -2.8238  -23.0710 O   0  0  0  0  0
   31.3742   -4.8268  -21.9231 O   0  0  0  0  0
   33.8326   -2.9839  -16.8050 O   0  0  0  0  0
   35.0692   -5.5721  -16.7728 O   0  0  0  0  0
   34.5106   -7.3859  -18.9427 O   0  0  0  0  0
   26.8969   -3.5232  -20.4622 N   0  0  0  0  0
   31.0504   -2.8026  -20.9150 N   0  0  0  0  0
   31.3219   -1.9622  -19.9140 N   0  0  0  0  0
  1 29  1  0  0  0
  2 29  1  0  0  0
  3  4  1  0  0  0
  4 10  1  0  0  0
  5  6  1  0  0  0
  6 31  1  0  0  0
  7 30  1  0  0  0
  7  2  1  0  0  0
  8 30  1  0  0  0
  9 31  1  0  0  0
 10 33  1  0  0  0
 11 33  1  0  0  0
 11 12  1  0  0  0
 11 17  1  0  0  0
 12 38  1  0  0  0
 13 38  1  0  0  0
 13 14  1  0  0  0
 14 15  1  0  0  0
 15 16  1  0  0  0
 16 38  1  0  0  0
 17 39  1  0  0  0
 18 19  1  0  0  0
 20 21  1  0  0  0
 21 37  1  0  0  0
 22 23  1  0  0  0
 22 36  1  0  0  0
 23 35  1  0  0  0
 24 25  1  0  0  0
 24 19  1  0  0  0
 26 35  1  0  0  0
 27 36  1  0  0  0
 28 37  1  0  0  0
 39 18  1  0  0  0
 39 40  1  0  0  0
  2  3  2  0  0  0
  4  5  2  0  0  0
  6  7  2  0  0  0
 10 32  2  0  0  0
 18 34  2  0  0  0
 19 20  2  0  0  0
 21 22  2  0  0  0
 23 24  2  0  0  0
 25 40  2  0  0  0
M  END
> <rmsd>
0.734287679

$$$$
MCULE-7926641801 PubChem-45357574


 76 83  0  0  0  0  0  0  0  0999 V2000
   21.0372    0.0996  -29.1872 C   0  0  0  0  0
   22.2482    0.8435  -29.7151 C   0  0  0  0  0
   21.8469    1.9941  -30.6529 C   0  0  0  0  0
   23.0850    2.6262  -31.3013 C   0  0  0  0  0
   24.3937    2.1463  -30.6689 C   0  0  0  0  0
   24.3792    0.6033  -30.5832 C   0  0  0  0  0
   25.1415    0.0059  -28.5000 C   0  0  0  0  0
   26.3923    0.3199  -27.6770 C   0  0  0  0  0
   26.1878   -0.0240  -26.1954 C   0  0  0  0  0
   24.3987   -1.4468  -26.5631 C   0  0  0  0  0
   24.5426   -1.3445  -28.0881 C   0  0  0  0  0
   22.9527   -1.7191  -26.2234 C   0  0  0  0  0
   27.4900   -0.7993  -24.5483 C   0  0  0  0  0
   26.5880   -1.4008  -23.4588 C   0  0  0  0  0
   27.1731   -1.1665  -22.0624 C   0  0  0  0  0
   28.5998   -1.6193  -21.9537 C   0  0  0  0  0
   29.4547   -1.6730  -23.0772 C   0  0  0  0  0
   28.9295   -1.2297  -24.3989 C   0  0  0  0  0
   30.7794   -2.1529  -22.9159 C   0  0  0  0  0
   31.2444   -2.5437  -21.6356 C   0  0  0  0  0
   30.3729   -2.4263  -20.5312 C   0  0  0  0  0
   29.0683   -1.9832  -20.6992 C   0  0  0  0  0
   30.8139   -2.7297  -19.2470 C   0  0  0  0  0
   32.1096   -3.1763  -19.0142 C   0  0  0  0  0
   32.9778   -3.3780  -20.1137 C   0  0  0  0  0
   32.5500   -3.0455  -21.4138 C   0  0  0  0  0
   34.3225   -4.0019  -19.9445 C   0  0  0  0  0
   33.7923   -3.3397  -17.1620 C   0  0  0  0  0
   33.7447   -3.4702  -15.6367 C   0  0  0  0  0
   35.1522   -3.3120  -15.0416 C   0  0  0  0  0
   36.0243   -2.2610  -15.7546 C   0  0  0  0  0
   35.7618   -2.2612  -17.2639 C   0  0  0  0  0
   36.5005   -1.1116  -17.9187 C   0  0  0  0  0
   35.9665   -5.2885  -15.9088 C   0  0  0  0  0
   37.4116   -5.7971  -15.9646 C   0  0  0  0  0
   37.6041   -6.7031  -17.1850 C   0  0  0  0  0
   36.4735   -7.7324  -17.2679 C   0  0  0  0  0
   35.1222   -7.0169  -17.1257 C   0  0  0  0  0
   33.9809   -8.0151  -17.2201 C   0  0  0  0  0
   26.1672   -2.8565  -23.7335 C   0  0  0  0  0
   24.9984   -3.2587  -22.8652 C   0  0  0  0  0
   25.1113   -4.4265  -21.9060 C   0  0  0  0  0
   23.7942   -4.7817  -21.2070 C   0  0  0  0  0
   23.4376   -3.7809  -20.1176 C   0  0  0  0  0
   27.3378   -4.3777  -24.8424 C   0  0  0  0  0
   25.5834    3.6406  -29.5360 C   0  0  0  0  0
   25.0079    5.0711  -29.6049 C   0  0  0  0  0
   25.7473    6.0456  -28.6767 C   0  0  0  0  0
   27.2667    5.7950  -28.6895 C   0  0  0  0  0
   27.5991    4.2835  -28.7845 C   0  0  0  0  0
   28.7999    3.8657  -27.9453 C   0  0  0  0  0
   25.4820    7.4599  -29.1454 C   0  0  0  0  0
   23.1298   -0.0420  -30.3676 O   0  0  0  0  0
   25.4542    0.0280  -29.8719 O   0  0  0  0  0
   24.8259   -0.2751  -25.8910 O   0  0  0  0  0
   25.3366   -2.3953  -28.5409 O   0  0  0  0  0
   27.0035   -1.1065  -25.8285 O   0  0  0  0  0
   29.6922   -1.1510  -25.3989 O   0  0  0  0  0
   33.4326   -3.2250  -22.4757 O   0  0  0  0  0
   32.4671   -3.3911  -17.6726 O   0  0  0  0  0
   34.3890   -2.1159  -17.5055 O   0  0  0  0  0
   37.3803   -2.4778  -15.4923 O   0  0  0  0  0
   35.8092   -4.5273  -14.7371 O   0  0  0  0  0
   35.0686   -6.3705  -15.8718 O   0  0  0  0  0
   36.5441   -8.4359  -18.4786 O   0  0  0  0  0
   37.6424   -5.9262  -18.3501 O   0  0  0  0  0
   31.6230   -2.2394  -24.0206 O   0  0  0  0  0
   23.9421   -2.6434  -22.9801 O   0  0  0  0  0
   23.8908   -6.0627  -20.6568 O   0  0  0  0  0
   26.1288   -4.2128  -20.9705 O   0  0  0  0  0
   27.2490   -3.7400  -23.6019 O   0  0  0  0  0
   24.5418    2.7194  -29.3996 O   0  0  0  0  0
   26.4807    3.4963  -28.4623 O   0  0  0  0  0
   27.8777    6.4118  -27.5866 O   0  0  0  0  0
   25.2506    5.8950  -27.3814 O   0  0  0  0  0
   21.0033    1.5301  -31.6662 O   0  0  0  0  0
  2  1  1  0  0  0
  2  3  1  0  0  0
  2 53  1  0  0  0
  3  4  1  0  0  0
  3 76  1  0  0  0
  4  5  1  0  0  0
  5  6  1  0  0  0
  5 72  1  0  0  0
  6 53  1  0  0  0
  6 54  1  0  0  0
  7 54  1  0  0  0
  7  8  1  0  0  0
  8  9  1  0  0  0
  9 55  1  0  0  0
  9 57  1  0  0  0
 10 55  1  0  0  0
 10 11  1  0  0  0
 10 12  1  0  0  0
 11 56  1  0  0  0
 11  7  1  0  0  0
 13 57  1  0  0  0
 13 14  1  0  0  0
 13 18  1  0  0  0
 14 15  1  0  0  0
 14 40  1  0  0  0
 15 16  1  0  0  0
 17 18  1  0  0  0
 17 19  1  0  0  0
 19 67  1  0  0  0
 20 21  1  0  0  0
 21 23  1  0  0  0
 22 16  1  0  0  0
 24 25  1  0  0  0
 24 60  1  0  0  0
 26 59  1  0  0  0
 26 20  1  0  0  0
 27 25  1  0  0  0
 28 60  1  0  0  0
 28 29  1  0  0  0
 28 61  1  0  0  0
 29 30  1  0  0  0
 30 31  1  0  0  0
 30 63  1  0  0  0
 31 32  1  0  0  0
 31 62  1  0  0  0
 32 61  1  0  0  0
 32 33  1  0  0  0
 34 63  1  0  0  0
 34 35  1  0  0  0
 34 64  1  0  0  0
 35 36  1  0  0  0
 36 37  1  0  0  0
 36 66  1  0  0  0
 37 38  1  0  0  0
 37 65  1  0  0  0
 38 64  1  0  0  0
 38 39  1  0  0  0
 40 41  1  0  0  0
 40 71  1  0  0  0
 42 41  1  0  0  0
 42 43  1  0  0  0
 42 70  1  0  0  0
 43 44  1  0  0  0
 43 69  1  0  0  0
 45 71  1  0  0  0
 46 72  1  0  0  0
 46 47  1  0  0  0
 46 73  1  0  0  0
 47 48  1  0  0  0
 48 49  1  0  0  0
 48 52  1  0  0  0
 48 75  1  0  0  0
 49 50  1  0  0  0
 49 74  1  0  0  0
 50 73  1  0  0  0
 50 51  1  0  0  0
 16 17  2  0  0  0
 18 58  2  0  0  0
 19 20  2  0  0  0
 21 22  2  0  0  0
 23 24  2  0  0  0
 25 26  2  0  0  0
 41 68  2  0  0  0
M  END
> <rmsd>
0.801223278

$$$$
MCULE-9073780365 PubChem-90478300 ZINC000263584023


 67 73  0  0  0  0  0  0  0  0999 V2000
   30.6255   -0.9270  -19.4599 C   0  0  0  0  0
   31.2117   -2.3284  -19.6411 C   0  0  0  0  0
   31.1640   -3.0691  -18.3002 C   0  0  0  0  0
   32.0583   -2.4177  -17.2482 C   0  0  0  0  0
   33.5083   -2.3589  -17.7455 C   0  0  0  0  0
   33.6979   -1.6781  -19.1201 C   0  0  0  0  0
   32.6866   -2.2832  -20.1259 C   0  0  0  0  0
   32.8228   -1.7434  -21.5522 C   0  0  0  0  0
   32.0479   -2.6376  -22.5160 C   0  0  0  0  0
   30.5539   -2.6912  -22.1653 C   0  0  0  0  0
   30.3729   -3.1218  -20.6703 C   0  0  0  0  0
   28.8935   -3.3307  -20.2634 C   0  0  0  0  0
   28.1635   -4.2783  -21.2252 C   0  0  0  0  0
   28.3503   -3.7325  -22.6456 C   0  0  0  0  0
   29.8233   -3.7507  -23.0347 C   0  0  0  0  0
   29.7743   -3.4850  -24.5225 C   0  0  0  0  0
   28.5558   -4.2753  -24.9940 C   0  0  0  0  0
   27.5492   -4.2822  -23.8312 C   0  0  0  0  0
   26.3430   -3.3750  -24.2018 C   0  0  0  0  0
   25.3608   -3.3035  -23.0263 C   0  0  0  0  0
   25.6136   -3.9833  -25.4234 C   0  0  0  0  0
   25.1078   -5.3719  -25.1748 C   0  0  0  0  0
   23.8017   -5.6346  -25.2506 C   0  0  0  0  0
   23.2539   -7.0069  -25.0017 C   0  0  0  0  0
   21.7599   -6.9931  -25.2450 C   0  0  0  0  0
   23.5137   -7.4291  -23.5677 C   0  0  0  0  0
   25.8118   -1.1942  -24.8586 C   0  0  0  0  0
   26.0613    0.1655  -24.2041 C   0  0  0  0  0
   24.9484    1.1355  -24.5986 C   0  0  0  0  0
   24.6648    1.0869  -26.1024 C   0  0  0  0  0
   24.5808   -0.3747  -26.5634 C   0  0  0  0  0
   24.3414   -0.4413  -28.0633 C   0  0  0  0  0
   30.4438   -5.1461  -22.8363 C   0  0  0  0  0
   29.9538   -1.3014  -22.4137 C   0  0  0  0  0
   33.5321   -0.1653  -19.0296 C   0  0  0  0  0
   35.1103   -1.9692  -19.6025 C   0  0  0  0  0
   34.0961   -0.8180  -16.1252 C   0  0  0  0  0
   33.9703   -1.0434  -14.6128 C   0  0  0  0  0
   33.5592    0.2709  -13.9446 C   0  0  0  0  0
   34.4055    1.4449  -14.4437 C   0  0  0  0  0
   34.5123    1.3923  -15.9738 C   0  0  0  0  0
   35.3872    2.5288  -16.4792 C   0  0  0  0  0
   33.6999   -3.0585  -13.7171 C   0  0  0  0  0
   32.8646   -3.5978  -12.5462 C   0  0  0  0  0
   32.9574   -5.1241  -12.4082 C   0  0  0  0  0
   34.3155   -5.6903  -12.8497 C   0  0  0  0  0
   34.9314   -4.9001  -14.0169 C   0  0  0  0  0
   35.5748   -5.8357  -15.0295 C   0  0  0  0  0
   23.8477   -7.9225  -25.8710 O   0  0  0  0  0
   26.8503   -2.0807  -24.5105 O   0  0  0  0  0
   25.7827   -1.0381  -26.2559 O   0  0  0  0  0
   24.1299   -1.7655  -28.4485 O   0  0  0  0  0
   23.4595    1.7408  -26.3614 O   0  0  0  0  0
   25.3031    2.4344  -24.2310 O   0  0  0  0  0
   26.0878    0.0238  -22.8159 O   0  0  0  0  0
   26.8183   -4.3425  -20.8715 O   0  0  0  0  0
   34.4706   -2.0136  -16.7635 O   0  0  0  0  0
   35.0721    0.1636  -16.3673 O   0  0  0  0  0
   35.4197    2.5203  -17.8729 O   0  0  0  0  0
   33.8085    2.6435  -14.0465 O   0  0  0  0  0
   33.6861    0.1560  -12.5600 O   0  0  0  0  0
   33.0066   -2.0231  -14.3485 O   0  0  0  0  0
   33.9804   -4.0773  -14.6430 O   0  0  0  0  0
   34.6061   -6.6257  -15.6538 O   0  0  0  0  0
   35.2004   -5.6852  -11.7712 O   0  0  0  0  0
   31.9412   -5.7177  -13.1572 O   0  0  0  0  0
   33.2750   -2.9903  -11.3598 O   0  0  0  0  0
  2  1  1  0  0  0
  2  3  1  0  0  0
  3  4  1  0  0  0
  4  5  1  0  0  0
  5  6  1  0  0  0
  5 57  1  0  0  0
  6 35  1  0  0  0
  6 36  1  0  0  0
  7  6  1  0  0  0
  7  8  1  0  0  0
  7  2  1  0  0  0
  8  9  1  0  0  0
  9 10  1  0  0  0
 10 11  1  0  0  0
 10 34  1  0  0  0
 11 12  1  0  0  0
 11  2  1  0  0  0
 12 13  1  0  0  0
 13 56  1  0  0  0
 14 13  1  0  0  0
 14 15  1  0  0  0
 15 16  1  0  0  0
 15 33  1  0  0  0
 15 10  1  0  0  0
 16 17  1  0  0  0
 18 17  1  0  0  0
 18 19  1  0  0  0
 18 14  1  0  0  0
 19 20  1  0  0  0
 19 21  1  0  0  0
 19 50  1  0  0  0
 21 22  1  0  0  0
 24 23  1  0  0  0
 24 25  1  0  0  0
 24 26  1  0  0  0
 24 49  1  0  0  0
 27 50  1  0  0  0
 27 28  1  0  0  0
 27 51  1  0  0  0
 28 29  1  0  0  0
 28 55  1  0  0  0
 29 30  1  0  0  0
 29 54  1  0  0  0
 30 31  1  0  0  0
 30 53  1  0  0  0
 31 51  1  0  0  0
 31 32  1  0  0  0
 32 52  1  0  0  0
 37 57  1  0  0  0
 37 38  1  0  0  0
 37 58  1  0  0  0
 38 39  1  0  0  0
 38 62  1  0  0  0
 39 40  1  0  0  0
 39 61  1  0  0  0
 40 41  1  0  0  0
 40 60  1  0  0  0
 41 58  1  0  0  0
 41 42  1  0  0  0
 42 59  1  0  0  0
 43 62  1  0  0  0
 43 44  1  0  0  0
 43 63  1  0  0  0
 44 45  1  0  0  0
 44 67  1  0  0  0
 45 46  1  0  0  0
 45 66  1  0  0  0
 46 47  1  0  0  0
 46 65  1  0  0  0
 47 63  1  0  0  0
 47 48  1  0  0  0
 48 64  1  0  0  0
 22 23  2  0  0  0
M  END
> <rmsd>
0.857632816

$$$$
MCULE-4369830162 LN00371136 MolPort-000-763-367 MolPort-008-346-773 PubChem-5096227


 51 55  0  0  0  0  0  0  0  0999 V2000
   31.4058   -2.2263  -20.7039 C   0  0  0  0  0
   31.0016   -3.2411  -19.6479 C   0  0  0  0  0
   31.4907   -3.9837  -17.5368 C   0  0  0  0  0
   33.4390   -4.4976  -16.6046 C   0  0  0  0  0
   33.6188   -5.8147  -15.8304 C   0  0  0  0  0
   35.7655   -5.4636  -15.2660 C   0  0  0  0  0
   35.8606   -4.0775  -15.9242 C   0  0  0  0  0
   34.7919   -3.9028  -17.0147 C   0  0  0  0  0
   30.2160   -4.8701  -17.5978 C   0  0  0  0  0
   29.0572   -4.1228  -18.2624 C   0  0  0  0  0
   29.4834   -3.5062  -19.6140 C   0  0  0  0  0
   27.9173   -2.6823  -20.9564 C   0  0  0  0  0
   27.4666   -2.3522  -23.1323 C   0  0  0  0  0
   25.9478   -2.1803  -22.9685 C   0  0  0  0  0
   24.5741   -1.7401  -24.6579 C   0  0  0  0  0
   25.2945   -0.4993  -26.4648 C   0  0  0  0  0
   26.0679   -0.5700  -27.7755 C   0  0  0  0  0
   23.9666    0.2581  -26.6240 C   0  0  0  0  0
   23.1980    1.8619  -28.0907 C   0  0  0  0  0
   21.0103    2.3147  -28.4750 C   0  0  0  0  0
   19.6419    2.5266  -27.8379 C   0  0  0  0  0
   20.9300    1.5151  -29.7821 C   0  0  0  0  0
   22.3222    1.5043  -30.4162 C   0  0  0  0  0
   23.3958    1.0868  -29.4079 C   0  0  0  0  0
   23.2626    0.3363  -25.2616 C   0  0  0  0  0
   23.2124   -1.0343  -24.5869 C   0  0  0  0  0
   25.5753   -1.8712  -21.5125 C   0  0  0  0  0
   26.4451   -2.6441  -20.5086 C   0  0  0  0  0
   31.4599   -2.8434  -18.3798 O   0  0  0  0  0
   32.6622   -4.7240  -17.7432 O   0  0  0  0  0
   34.9199   -6.3263  -15.9876 O   0  0  0  0  0
   37.0380   -6.0247  -15.1697 O   0  0  0  0  0
   35.7236   -3.0962  -14.9400 O   0  0  0  0  0
   34.6509   -2.5599  -17.3699 O   0  0  0  0  0
   30.4615   -6.0584  -18.2916 O   0  0  0  0  0
   28.5840   -3.1390  -17.3893 O   0  0  0  0  0
   28.7458   -2.3445  -19.8836 O   0  0  0  0  0
   28.1587   -1.8101  -22.0346 O   0  0  0  0  0
   25.5041   -1.1449  -23.7940 O   0  0  0  0  0
   25.0677   -1.8073  -25.9821 O   0  0  0  0  0
   25.3987   -1.3771  -28.6981 O   0  0  0  0  0
   24.1893    1.5568  -27.1284 O   0  0  0  0  0
   21.8939    1.6978  -27.5709 O   0  0  0  0  0
   19.1432    1.3309  -27.3175 O   0  0  0  0  0
   20.5041    0.2061  -29.5319 O   0  0  0  0  0
   22.3468    0.6606  -31.5282 O   0  0  0  0  0
   24.6557    1.3730  -29.9350 O   0  0  0  0  0
   23.9069    1.2513  -24.4245 O   0  0  0  0  0
   22.2390   -1.8257  -25.1986 O   0  0  0  0  0
   24.2179   -2.1125  -21.2911 O   0  0  0  0  0
   25.9813   -3.9534  -20.3636 O   0  0  0  0  0
  2  1  1  0  0  0
  2 29  1  0  0  0
  3 29  1  0  0  0
  3 30  1  0  0  0
  3  9  1  0  0  0
  4 30  1  0  0  0
  4  5  1  0  0  0
  5 31  1  0  0  0
  6 31  1  0  0  0
  6 32  1  0  0  0
  6  7  1  0  0  0
  7 33  1  0  0  0
  7  8  1  0  0  0
  8 34  1  0  0  0
  8  4  1  0  0  0
  9 35  1  0  0  0
  9 10  1  0  0  0
 10 36  1  0  0  0
 10 11  1  0  0  0
 11 37  1  0  0  0
 11  2  1  0  0  0
 12 37  1  0  0  0
 12 38  1  0  0  0
 13 38  1  0  0  0
 13 14  1  0  0  0
 14 39  1  0  0  0
 14 27  1  0  0  0
 15 39  1  0  0  0
 15 40  1  0  0  0
 16 40  1  0  0  0
 16 17  1  0  0  0
 16 18  1  0  0  0
 17 41  1  0  0  0
 18 42  1  0  0  0
 18 25  1  0  0  0
 19 42  1  0  0  0
 19 43  1  0  0  0
 20 43  1  0  0  0
 20 21  1  0  0  0
 20 22  1  0  0  0
 21 44  1  0  0  0
 22 45  1  0  0  0
 22 23  1  0  0  0
 23 46  1  0  0  0
 23 24  1  0  0  0
 24 47  1  0  0  0
 24 19  1  0  0  0
 25 48  1  0  0  0
 25 26  1  0  0  0
 26 49  1  0  0  0
 26 15  1  0  0  0
 27 50  1  0  0  0
 27 28  1  0  0  0
 28 51  1  0  0  0
 28 12  1  0  0  0
M  END
> <rmsd>
0.742639065

$$$$
MCULE-5973583271 LN02184352 MolPort-044-726-152 PubChem-72710702 ZINC000210901326


 45 49  0  0  0  0  0  0  0  0999 V2000
   28.0237   -6.9462  -19.7097 O   0  0  0  0  0
   31.3909   -6.9330  -20.9474 O   0  0  0  0  0
   32.7867   -5.2794  -21.7461 O   0  0  0  0  0
   33.9752   -8.0921  -16.6698 O   0  0  0  0  0
   34.7641   -5.6239  -15.6258 O   0  0  0  0  0
   34.3475   -3.2977  -17.0834 O   0  0  0  0  0
   35.5392   -2.9629  -19.8699 O   0  0  0  0  0
   35.0918   -0.6525  -21.3406 O   0  0  0  0  0
   32.4832    0.1431  -21.9434 O   0  0  0  0  0
   30.5999   -4.2241  -18.4066 O   0  0  0  0  0
   29.5189   -3.7215  -20.3819 O   0  0  0  0  0
   26.0739   -4.5557  -20.5567 O   0  0  0  0  0
   26.8795   -4.4112  -23.5297 O   0  0  0  0  0
   27.0415   -6.1802  -25.0061 O   0  0  0  0  0
   25.0808   -4.5698  -29.4051 O   0  0  0  0  0
   24.4153   -1.8861  -28.9604 O   0  0  0  0  0
   24.8978   -0.7363  -26.4536 O   0  0  0  0  0
   28.7774   -5.4456  -22.6894 O   0  0  0  0  0
   28.9291   -6.0733  -20.3124 C   0  0  0  0  0
   29.1331   -6.4777  -21.7954 C   0  0  0  0  0
   30.5646   -6.9305  -22.1066 C   0  0  0  0  0
   32.4201   -6.0046  -20.7807 C   0  0  0  0  0
   33.0406   -5.8496  -19.4514 C   0  0  0  0  0
   33.2245   -7.0018  -18.6793 C   0  0  0  0  0
   33.7961   -6.9294  -17.4102 C   0  0  0  0  0
   34.1846   -5.6927  -16.8889 C   0  0  0  0  0
   33.9868   -4.5236  -17.6337 C   0  0  0  0  0
   33.4103   -4.5861  -18.9195 C   0  0  0  0  0
   33.1428   -3.3213  -19.6575 C   0  0  0  0  0
   34.2328   -2.5576  -20.1272 C   0  0  0  0  0
   34.0127   -1.3982  -20.8808 C   0  0  0  0  0
   32.7094   -0.9980  -21.1847 C   0  0  0  0  0
   31.6262   -1.7482  -20.7302 C   0  0  0  0  0
   31.8202   -2.8984  -19.9581 C   0  0  0  0  0
   30.6216   -3.6424  -19.5254 C   0  0  0  0  0
   28.4380   -4.6231  -20.1633 C   0  0  0  0  0
   27.3091   -4.3065  -21.1547 C   0  0  0  0  0
   27.4294   -5.1361  -22.4380 C   0  0  0  0  0
   26.6994   -4.9830  -24.7926 C   0  0  0  0  0
   26.1082   -4.1816  -25.8768 C   0  0  0  0  0
   25.8732   -4.7516  -27.1355 C   0  0  0  0  0
   25.3093   -3.9904  -28.1630 C   0  0  0  0  0
   24.9773   -2.6455  -27.9400 C   0  0  0  0  0
   25.2147   -2.0700  -26.6852 C   0  0  0  0  0
   25.7760   -2.8372  -25.6593 C   0  0  0  0  0
 19  1  1  0  0  0
 19 20  1  0  0  0
 20 21  1  0  0  0
 20 18  1  0  0  0
 21  2  1  0  0  0
 22  2  1  0  0  0
 22 23  1  0  0  0
 24 25  1  0  0  0
 25  4  1  0  0  0
 26  5  1  0  0  0
 26 27  1  0  0  0
 27  6  1  0  0  0
 28 29  1  0  0  0
 28 23  1  0  0  0
 30  7  1  0  0  0
 30 31  1  0  0  0
 31  8  1  0  0  0
 32  9  1  0  0  0
 32 33  1  0  0  0
 34 35  1  0  0  0
 34 29  1  0  0  0
 35 11  1  0  0  0
 36 11  1  0  0  0
 36 37  1  0  0  0
 36 19  1  0  0  0
 37 12  1  0  0  0
 37 38  1  0  0  0
 38 13  1  0  0  0
 38 18  1  0  0  0
 39 13  1  0  0  0
 39 40  1  0  0  0
 41 42  1  0  0  0
 42 15  1  0  0  0
 43 16  1  0  0  0
 43 44  1  0  0  0
 44 17  1  0  0  0
 45 40  1  0  0  0
 22  3  2  0  0  0
 23 24  2  0  0  0
 25 26  2  0  0  0
 27 28  2  0  0  0
 29 30  2  0  0  0
 31 32  2  0  0  0
 33 34  2  0  0  0
 35 10  2  0  0  0
 39 14  2  0  0  0
 40 41  2  0  0  0
 42 43  2  0  0  0
 44 45  2  0  0  0
M  END
> <rmsd>
0.657405198

$$$$
MCULE-3732229572 MolPort-046-836-816 PubChem-77916109


 87 96  0  0  0  0  0  0  0  0999 V2000
   22.8608   -0.8567  -24.6607 C   0  0  0  0  0
   23.4011   -0.4730  -26.0318 C   0  0  0  0  0
   22.2850   -0.5720  -27.0996 C   0  0  0  0  0
   22.8752   -0.8864  -28.4803 C   0  0  0  0  0
   23.8180   -2.0959  -28.4277 C   0  0  0  0  0
   24.2419   -2.3909  -26.9833 C   0  0  0  0  0
   24.8741   -4.4456  -26.1798 C   0  0  0  0  0
   23.6027   -5.1118  -26.7449 C   0  0  0  0  0
   23.0277   -6.1359  -25.7724 C   0  0  0  0  0
   22.9983   -5.5333  -24.3723 C   0  0  0  0  0
   24.7224   -4.1111  -24.6798 C   0  0  0  0  0
   26.0768   -2.8982  -23.0158 C   0  0  0  0  0
   27.4258   -2.6970  -22.3548 C   0  0  0  0  0
   27.9199   -1.3024  -22.8029 C   0  0  0  0  0
   29.4159   -1.2626  -23.1100 C   0  0  0  0  0
   29.7765   -2.2154  -24.2519 C   0  0  0  0  0
   28.9949   -3.5370  -24.1968 C   0  0  0  0  0
   28.3954   -3.8444  -22.8058 C   0  0  0  0  0
   29.4605   -4.2972  -21.8065 C   0  0  0  0  0
   30.4252   -5.1299  -22.2494 C   0  0  0  0  0
   31.5748   -5.6308  -21.4148 C   0  0  0  0  0
   31.7348   -4.9374  -20.0466 C   0  0  0  0  0
   30.9248   -3.6245  -19.8645 C   0  0  0  0  0
   29.4561   -3.8749  -20.3384 C   0  0  0  0  0
   28.5976   -2.6182  -20.1127 C   0  0  0  0  0
   27.2479   -2.6632  -20.8269 C   0  0  0  0  0
   28.8420   -5.0161  -19.5207 C   0  0  0  0  0
   30.9465   -3.1648  -18.3881 C   0  0  0  0  0
   31.9520   -3.9042  -17.5071 C   0  0  0  0  0
   33.3092   -4.0542  -18.2099 C   0  0  0  0  0
   33.1927   -4.9033  -19.5172 C   0  0  0  0  0
   33.6926   -6.3485  -19.3118 C   0  0  0  0  0
   33.4582   -6.9010  -17.9007 C   0  0  0  0  0
   34.0580   -6.0162  -16.7917 C   0  0  0  0  0
   34.4012   -4.5649  -17.2310 C   0  0  0  0  0
   34.4298   -3.6684  -15.9847 C   0  0  0  0  0
   35.7726   -4.4986  -17.9347 C   0  0  0  0  0
   34.7631   -7.1647  -14.9289 C   0  0  0  0  0
   34.3216   -6.0727  -13.9266 C   0  0  0  0  0
   33.0422   -6.4610  -13.1777 C   0  0  0  0  0
   32.9980   -7.9506  -12.8052 C   0  0  0  0  0
   33.7885   -8.8190  -13.7900 C   0  0  0  0  0
   33.1906  -10.2181  -13.8671 C   0  0  0  0  0
   34.9508  -11.5643  -13.5387 C   0  0  0  0  0
   36.3400  -11.8856  -14.1218 C   0  0  0  0  0
   37.0343  -13.0165  -13.3348 C   0  0  0  0  0
   36.6327  -13.0136  -11.8525 C   0  0  0  0  0
   35.1255  -12.7603  -11.6517 C   0  0  0  0  0
   34.5369  -13.8613  -10.7889 C   0  0  0  0  0
   34.0918   -4.2643  -20.5680 C   0  0  0  0  0
   31.5667   -2.5040  -20.6842 C   0  0  0  0  0
   29.4784   -1.5390  -25.5737 C   0  0  0  0  0
   31.2622   -2.5086  -24.1908 C   0  0  0  0  0
   20.2087    0.1984  -27.0255 C   0  0  0  0  0
   19.5113    0.9308  -25.8756 C   0  0  0  0  0
   18.0179    1.1611  -26.1660 C   0  0  0  0  0
   17.4127    0.0923  -27.0799 C   0  0  0  0  0
   18.3831   -0.3815  -28.1737 C   0  0  0  0  0
   24.5914   -1.1914  -26.3299 O   0  0  0  0  0
   25.2945   -3.3231  -26.9360 O   0  0  0  0  0
   24.3084   -5.2471  -23.9617 O   0  0  0  0  0
   25.9723   -3.6724  -24.1708 O   0  0  0  0  0
   25.0563   -2.3166  -22.5597 O   0  0  0  0  0
   26.4679   -3.7287  -20.3655 O   0  0  0  0  0
   34.6985   -2.3415  -16.3279 O   0  0  0  0  0
   36.8251   -4.7349  -17.0481 O   0  0  0  0  0
   35.1564   -6.6565  -16.1843 O   0  0  0  0  0
   33.8336   -8.2170  -15.0563 O   0  0  0  0  0
   34.0637  -11.0978  -14.5229 O   0  0  0  0  0
   34.4235  -12.6813  -12.8729 O   0  0  0  0  0
   33.2273  -13.5339  -10.4353 O   0  0  0  0  0
   37.3561  -12.0344  -11.1748 O   0  0  0  0  0
   36.7277  -14.2649  -13.8859 O   0  0  0  0  0
   36.2658  -12.2010  -15.4833 O   0  0  0  0  0
   33.5128   -8.1307  -11.5214 O   0  0  0  0  0
   31.9343   -6.1499  -13.9645 O   0  0  0  0  0
   35.3485   -5.8365  -13.0184 O   0  0  0  0  0
   32.0937   -7.0950  -17.6746 O   0  0  0  0  0
   21.7295   -6.4693  -26.1549 O   0  0  0  0  0
   23.8727   -5.7177  -27.9716 O   0  0  0  0  0
   24.9420   -1.8325  -29.2154 O   0  0  0  0  0
   21.8442   -1.1498  -29.3835 O   0  0  0  0  0
   21.5407    0.6114  -27.1372 O   0  0  0  0  0
   19.5354    0.4196  -28.2364 O   0  0  0  0  0
   17.0027   -1.0001  -26.3201 O   0  0  0  0  0
   17.8525    2.4143  -26.7507 O   0  0  0  0  0
   19.6474    0.1765  -24.7070 O   0  0  0  0  0
  1  2  1  0  0  0
  2  3  1  0  0  0
  2 59  1  0  0  0
  3  4  1  0  0  0
  3 83  1  0  0  0
  4  5  1  0  0  0
  4 82  1  0  0  0
  5  6  1  0  0  0
  5 81  1  0  0  0
  6 59  1  0  0  0
  6 60  1  0  0  0
  7 60  1  0  0  0
  7  8  1  0  0  0
  8  9  1  0  0  0
  8 80  1  0  0  0
  9 10  1  0  0  0
  9 79  1  0  0  0
 10 61  1  0  0  0
 11 61  1  0  0  0
 11 62  1  0  0  0
 11  7  1  0  0  0
 12 62  1  0  0  0
 13 12  1  0  0  0
 13 14  1  0  0  0
 14 15  1  0  0  0
 15 16  1  0  0  0
 16 17  1  0  0  0
 16 52  1  0  0  0
 16 53  1  0  0  0
 17 18  1  0  0  0
 18 19  1  0  0  0
 18 13  1  0  0  0
 21 20  1  0  0  0
 21 22  1  0  0  0
 22 23  1  0  0  0
 23 24  1  0  0  0
 23 28  1  0  0  0
 23 51  1  0  0  0
 24 25  1  0  0  0
 24 27  1  0  0  0
 24 19  1  0  0  0
 25 26  1  0  0  0
 26 64  1  0  0  0
 26 13  1  0  0  0
 28 29  1  0  0  0
 29 30  1  0  0  0
 30 31  1  0  0  0
 31 32  1  0  0  0
 31 50  1  0  0  0
 31 22  1  0  0  0
 32 33  1  0  0  0
 33 34  1  0  0  0
 33 78  1  0  0  0
 34 35  1  0  0  0
 34 67  1  0  0  0
 35 36  1  0  0  0
 35 37  1  0  0  0
 35 30  1  0  0  0
 36 65  1  0  0  0
 37 66  1  0  0  0
 38 67  1  0  0  0
 38 39  1  0  0  0
 38 68  1  0  0  0
 39 40  1  0  0  0
 39 77  1  0  0  0
 40 41  1  0  0  0
 40 76  1  0  0  0
 41 42  1  0  0  0
 41 75  1  0  0  0
 42 68  1  0  0  0
 42 43  1  0  0  0
 43 69  1  0  0  0
 44 69  1  0  0  0
 44 45  1  0  0  0
 44 70  1  0  0  0
 45 46  1  0  0  0
 45 74  1  0  0  0
 46 47  1  0  0  0
 46 73  1  0  0  0
 47 48  1  0  0  0
 47 72  1  0  0  0
 48 70  1  0  0  0
 48 49  1  0  0  0
 49 71  1  0  0  0
 54 83  1  0  0  0
 54 55  1  0  0  0
 54 84  1  0  0  0
 55 56  1  0  0  0
 55 87  1  0  0  0
 56 57  1  0  0  0
 56 86  1  0  0  0
 57 58  1  0  0  0
 57 85  1  0  0  0
 58 84  1  0  0  0
 12 63  2  0  0  0
 19 20  2  0  0  0
M  END
> <rmsd>
0.675307631

$$$$
MCULE-9616913131 LN01792770 MolPort-000-760-871 PubChem-44661440


 69 77  0  0  0  0  0  0  0  0999 V2000
   20.2463   -1.9173  -33.2447 C   0  0  0  0  0
   18.7378   -1.8317  -33.3684 C   0  0  0  0  0
   18.5182   -0.7900  -34.4711 C   0  0  0  0  0
   19.8026   -0.7610  -35.3125 C   0  0  0  0  0
   20.3690    0.6270  -35.4324 C   0  0  0  0  0
   20.5292    1.3226  -36.7533 C   0  0  0  0  0
   21.2346    2.6092  -35.0191 C   0  0  0  0  0
   20.7763    1.3803  -34.4143 C   0  0  0  0  0
   20.7223   -1.8254  -34.6983 C   0  0  0  0  0
   20.4234   -3.1191  -35.4779 C   0  0  0  0  0
   22.2433   -1.5792  -34.6927 C   0  0  0  0  0
   22.9679   -2.7753  -34.0452 C   0  0  0  0  0
   22.3703   -3.2224  -32.6842 C   0  0  0  0  0
   23.1688   -2.7665  -31.4344 C   0  0  0  0  0
   22.5215   -3.2641  -30.1046 C   0  0  0  0  0
   22.2549   -2.1508  -29.0849 C   0  0  0  0  0
   23.5014   -1.2877  -28.8768 C   0  0  0  0  0
   24.0422   -0.7031  -30.1889 C   0  0  0  0  0
   23.3369   -1.2352  -31.4434 C   0  0  0  0  0
   24.5069   -1.6248  -26.9192 C   0  0  0  0  0
   24.0492   -2.7463  -25.9816 C   0  0  0  0  0
   25.1071   -3.8372  -25.8665 C   0  0  0  0  0
   26.4733   -3.2296  -25.5602 C   0  0  0  0  0
   26.7855   -2.0400  -26.4809 C   0  0  0  0  0
   27.3027   -2.4585  -27.8505 C   0  0  0  0  0
   27.6242   -3.4563  -23.6696 C   0  0  0  0  0
   27.2128   -4.4488  -22.5819 C   0  0  0  0  0
   26.6409   -3.7014  -21.3902 C   0  0  0  0  0
   27.5940   -2.5868  -20.9426 C   0  0  0  0  0
   28.1467   -1.7533  -22.1151 C   0  0  0  0  0
   27.2029   -0.6328  -22.5257 C   0  0  0  0  0
   29.5315   -3.8098  -20.6128 C   0  0  0  0  0
   29.7739   -5.0815  -19.7966 C   0  0  0  0  0
   30.4865   -4.7467  -18.4906 C   0  0  0  0  0
   30.4409   -6.2940  -16.5770 C   0  0  0  0  0
   30.8704   -7.5809  -15.9729 C   0  0  0  0  0
   31.7019   -3.8548  -18.7466 C   0  0  0  0  0
   31.2686   -2.6671  -19.6184 C   0  0  0  0  0
   32.4401   -1.7434  -19.8944 C   0  0  0  0  0
   33.5109   -3.8650  -17.4532 C   0  0  0  0  0
   35.6967   -3.3283  -17.5043 C   0  0  0  0  0
   36.7099   -2.3847  -18.1485 C   0  0  0  0  0
   36.0840   -3.8317  -16.0969 C   0  0  0  0  0
   34.8286   -4.2009  -15.2978 C   0  0  0  0  0
   33.6889   -4.7262  -16.1847 C   0  0  0  0  0
   21.2676   -4.1170  -30.2918 C   0  0  0  0  0
   20.2707   -3.3774  -31.1688 C   0  0  0  0  0
   20.8108   -3.1870  -32.5897 C   0  0  0  0  0
   24.5482   -3.4047  -31.5156 C   0  0  0  0  0
   20.6703   -0.8026  -32.5078 O   0  0  0  0  0
   21.0860    2.5762  -36.3896 O   0  0  0  0  0
   21.7224    3.5847  -34.3907 O   0  0  0  0  0
   24.5046   -2.0387  -28.2573 O   0  0  0  0  0
   25.1602   -4.5917  -27.0406 O   0  0  0  0  0
   25.7556   -1.0635  -26.5456 O   0  0  0  0  0
   26.5105   -2.8135  -24.2262 O   0  0  0  0  0
   26.3798   -4.5865  -20.3435 O   0  0  0  0  0
   28.5985   -2.5240  -23.2211 O   0  0  0  0  0
   28.5722   -2.9795  -19.9950 O   0  0  0  0  0
   30.8897   -5.9497  -17.8522 O   0  0  0  0  0
   29.6797   -5.5266  -15.9293 O   0  0  0  0  0
   30.7421   -3.1165  -20.8486 O   0  0  0  0  0
   32.1972   -3.3935  -17.5207 O   0  0  0  0  0
   34.4052   -2.7745  -17.5007 O   0  0  0  0  0
   36.6421   -1.1164  -17.5669 O   0  0  0  0  0
   35.1408   -5.1146  -14.2897 O   0  0  0  0  0
   33.9377   -6.0469  -16.5641 O   0  0  0  0  0
   36.8031   -2.8684  -15.3847 O   0  0  0  0  0
   22.7237   -1.3898  -35.9901 O   0  0  0  0  0
  1 50  1  0  0  0
  1  2  1  0  0  0
  2  3  1  0  0  0
  3  4  1  0  0  0
  4  5  1  0  0  0
  4  9  1  0  0  0
  6  5  1  0  0  0
  6 51  1  0  0  0
  7 51  1  0  0  0
  7  8  1  0  0  0
  9 10  1  0  0  0
  9 11  1  0  0  0
  9  1  1  0  0  0
 11 12  1  0  0  0
 11 69  1  0  0  0
 12 13  1  0  0  0
 13 14  1  0  0  0
 14 15  1  0  0  0
 14 49  1  0  0  0
 15 16  1  0  0  0
 15 46  1  0  0  0
 16 17  1  0  0  0
 17 18  1  0  0  0
 17 53  1  0  0  0
 18 19  1  0  0  0
 19 14  1  0  0  0
 20 53  1  0  0  0
 20 21  1  0  0  0
 20 55  1  0  0  0
 21 22  1  0  0  0
 22 54  1  0  0  0
 22 23  1  0  0  0
 23 24  1  0  0  0
 23 56  1  0  0  0
 24 25  1  0  0  0
 24 55  1  0  0  0
 26 56  1  0  0  0
 26 27  1  0  0  0
 26 58  1  0  0  0
 27 28  1  0  0  0
 28 57  1  0  0  0
 28 29  1  0  0  0
 29 30  1  0  0  0
 29 59  1  0  0  0
 30 31  1  0  0  0
 30 58  1  0  0  0
 32 59  1  0  0  0
 32 33  1  0  0  0
 32 62  1  0  0  0
 33 34  1  0  0  0
 34 60  1  0  0  0
 34 37  1  0  0  0
 35 60  1  0  0  0
 36 35  1  0  0  0
 37 38  1  0  0  0
 37 63  1  0  0  0
 38 39  1  0  0  0
 38 62  1  0  0  0
 40 63  1  0  0  0
 40 64  1  0  0  0
 41 64  1  0  0  0
 41 42  1  0  0  0
 41 43  1  0  0  0
 42 65  1  0  0  0
 43 44  1  0  0  0
 43 68  1  0  0  0
 44 66  1  0  0  0
 44 45  1  0  0  0
 45 67  1  0  0  0
 45 40  1  0  0  0
 46 47  1  0  0  0
 47 48  1  0  0  0
 48 13  1  0  0  0
 48  1  1  0  0  0
  7 52  2  0  0  0
  8  5  2  0  0  0
 35 61  2  0  0  0
M  END
> <rmsd>
0.68280679

$$$$
MCULE-2359203891 MCULE-3589020151 PubChem-13366009


100109  0  0  0  0  0  0  0  0999 V2000
   36.9849   -6.3185  -14.8484 C   0  0  0  0  0
   37.2825   -7.0714  -16.1405 C   0  0  0  0  0
   36.7559   -8.5284  -16.1732 C   0  0  0  0  0
   36.4941   -8.9828  -17.6132 C   0  0  0  0  0
   35.5720   -7.9902  -18.3358 C   0  0  0  0  0
   35.7229   -6.5451  -17.8234 C   0  0  0  0  0
   34.2204   -4.9941  -17.2933 C   0  0  0  0  0
   34.6431   -3.9303  -16.2773 C   0  0  0  0  0
   33.7742   -3.9276  -15.0073 C   0  0  0  0  0
   32.6749   -4.9892  -15.0952 C   0  0  0  0  0
   32.6822   -5.0494  -17.4273 C   0  0  0  0  0
   31.2339   -6.1518  -19.0354 C   0  0  0  0  0
   31.4896   -5.5010  -20.2571 C   0  0  0  0  0
   30.4446   -5.3306  -21.1859 C   0  0  0  0  0
   29.1610   -5.8192  -20.9204 C   0  0  0  0  0
   28.9285   -6.4603  -19.7003 C   0  0  0  0  0
   29.9480   -6.6320  -18.7562 C   0  0  0  0  0
   28.3556   -7.3472  -17.0566 C   0  0  0  0  0
   27.7076   -6.2687  -16.4364 C   0  0  0  0  0
   26.3484   -6.3533  -16.1350 C   0  0  0  0  0
   25.6338   -7.5237  -16.4151 C   0  0  0  0  0
   26.2933   -8.6144  -16.9972 C   0  0  0  0  0
   27.6515   -8.5296  -17.3124 C   0  0  0  0  0
   24.1507   -7.5476  -16.2029 C   0  0  0  0  0
   23.4268   -7.1437  -17.4950 C   0  0  0  0  0
   23.5333   -5.6626  -17.7176 C   0  0  0  0  0
   24.6801   -5.9674  -19.9573 C   0  0  0  0  0
   25.7983   -5.2939  -20.6948 C   0  0  0  0  0
   28.0251   -5.5627  -21.8821 C   0  0  0  0  0
   28.2938   -6.1288  -23.2435 C   0  0  0  0  0
   28.8483   -3.8500  -24.1722 C   0  0  0  0  0
   27.7542   -3.0169  -24.7730 C   0  0  0  0  0
   27.7876   -2.6639  -26.1262 C   0  0  0  0  0
   26.8462   -1.7924  -26.6666 C   0  0  0  0  0
   25.8234   -1.2879  -25.8469 C   0  0  0  0  0
   25.7695   -1.6548  -24.4980 C   0  0  0  0  0
   26.7370   -2.5119  -23.9606 C   0  0  0  0  0
   26.9773   -1.4137  -28.0898 C   0  0  0  0  0
   26.0977   -1.9721  -29.0374 C   0  0  0  0  0
   26.3096   -1.7652  -30.4020 C   0  0  0  0  0
   27.3951   -1.0032  -30.8361 C   0  0  0  0  0
   28.2562   -0.4201  -29.9043 C   0  0  0  0  0
   28.0502   -0.6011  -28.5277 C   0  0  0  0  0
   28.9650    0.0832  -27.5335 C   0  0  0  0  0
   31.0749   -0.4189  -26.2163 C   0  0  0  0  0
   31.6736   -1.5733  -25.4730 C   0  0  0  0  0
   32.9108   -1.1708  -24.6446 C   0  0  0  0  0
   33.1658   -2.1379  -23.5282 C   0  0  0  0  0
   32.8452   -1.7435  -22.2245 C   0  0  0  0  0
   32.7902   -2.6869  -21.2001 C   0  0  0  0  0
   33.0143   -4.0420  -21.4913 C   0  0  0  0  0
   33.4062   -4.4290  -22.7770 C   0  0  0  0  0
   33.4764   -3.4799  -23.7969 C   0  0  0  0  0
   30.1782   -3.4732  -24.7576 C   0  0  0  0  0
   29.2534    1.5156  -27.8851 C   0  0  0  0  0
   23.5158   -6.2720  -20.9007 C   0  0  0  0  0
   23.6912   -7.5532  -21.6639 C   0  0  0  0  0
   21.5768   -8.7685  -18.0271 C   0  0  0  0  0
   20.1402   -9.1574  -17.9451 C   0  0  0  0  0
   19.2768   -8.1697  -18.7129 C   0  0  0  0  0
   19.2692   -8.5004  -20.2011 C   0  0  0  0  0
   18.2834   -9.6234  -20.4761 C   0  0  0  0  0
   18.8632   -7.2742  -20.9818 C   0  0  0  0  0
   31.7647   -4.9080  -13.8806 C   0  0  0  0  0
   37.8096   -9.0909  -18.3693 C   0  0  0  0  0
   37.0115   -6.2825  -17.2916 O   0  0  0  0  0
   34.7191   -6.2403  -16.8965 O   0  0  0  0  0
   31.9127   -4.7776  -16.2622 O   0  0  0  0  0
   32.2261   -6.2395  -18.0604 O   0  0  0  0  0
   29.6692   -7.2148  -17.5114 O   0  0  0  0  0
   23.0495   -4.8656  -16.8720 O   0  0  0  0  0
   25.8495   -4.0334  -20.7647 O   0  0  0  0  0
   28.2718   -7.3773  -23.4198 O   0  0  0  0  0
   24.8790   -0.4050  -26.3568 O   0  0  0  0  0
   31.2115    0.7566  -25.7809 O   0  0  0  0  0
   32.7780   -5.0121  -20.5177 O   0  0  0  0  0
   34.0330   -1.0725  -25.4696 O   0  0  0  0  0
   30.8440   -4.3038  -25.4364 O   0  0  0  0  0
   30.0399    1.8013  -28.8237 O   0  0  0  0  0
   28.6025    2.5323  -27.1992 O   0  0  0  0  0
   27.6127   -0.8209  -32.1930 O   0  0  0  0  0
   25.0202   -2.7477  -28.6319 O   0  0  0  0  0
   24.6555   -8.3295  -21.4293 O   0  0  0  0  0
   22.3944   -9.5413  -18.5964 O   0  0  0  0  0
   23.7516   -8.8172  -15.7677 O   0  0  0  0  0
   30.9125   -6.0138  -13.8589 O   0  0  0  0  0
   34.5833   -4.1448  -13.8778 O   0  0  0  0  0
   34.6115   -2.6649  -16.8741 O   0  0  0  0  0
   35.5877   -8.6580  -15.4077 O   0  0  0  0  0
   24.2155   -5.1346  -18.8561 N   0  0  0  0  0
   26.7647   -6.0955  -21.3722 N   0  0  0  0  0
   28.5804   -5.2708  -24.3491 N   0  0  0  0  0
   30.1843   -0.6886  -27.3074 N   0  0  0  0  0
   30.6325   -2.1288  -24.6192 N   0  0  0  0  0
   22.7303   -7.9062  -22.6489 N   0  0  0  0  0
   22.0254   -7.5356  -17.4551 N   0  0  0  0  0
   19.7168   -9.1965  -16.5585 N   0  0  0  0  0
   35.8656  -10.2948  -17.6131 N   0  0  0  0  0
   32.3427   -2.1642  -19.5824 Cl  0  0  0  0  0
   28.5568   -4.7692  -16.1096 Cl  0  0  0  0  0
  1  2  1  0  0  0
  2  3  1  0  0  0
  2 66  1  0  0  0
  3  4  1  0  0  0
  3 89  1  0  0  0
  4  5  1  0  0  0
  4 65  1  0  0  0
  4 98  1  0  0  0
  5  6  1  0  0  0
  6 66  1  0  0  0
  6 67  1  0  0  0
  7 67  1  0  0  0
  7  8  1  0  0  0
  8  9  1  0  0  0
  8 88  1  0  0  0
  9 10  1  0  0  0
  9 87  1  0  0  0
 10 68  1  0  0  0
 10 64  1  0  0  0
 11 68  1  0  0  0
 11 69  1  0  0  0
 11  7  1  0  0  0
 12 69  1  0  0  0
 12 13  1  0  0  0
 13 76  1  0  0  0
 14 15  1  0  0  0
 16 17  1  0  0  0
 17 70  1  0  0  0
 18 70  1  0  0  0
 19 20  1  0  0  0
 19100  1  0  0  0
 21 22  1  0  0  0
 23 18  1  0  0  0
 24 21  1  0  0  0
 24 25  1  0  0  0
 24 85  1  0  0  0
 25 26  1  0  0  0
 25 96  1  0  0  0
 26 90  1  0  0  0
 27 90  1  0  0  0
 27 28  1  0  0  0
 27 56  1  0  0  0
 28 91  1  0  0  0
 29 91  1  0  0  0
 29 30  1  0  0  0
 29 15  1  0  0  0
 30 92  1  0  0  0
 31 92  1  0  0  0
 31 32  1  0  0  0
 31 54  1  0  0  0
 33 34  1  0  0  0
 34 38  1  0  0  0
 35 36  1  0  0  0
 35 74  1  0  0  0
 37 32  1  0  0  0
 39 40  1  0  0  0
 39 82  1  0  0  0
 41 42  1  0  0  0
 41 81  1  0  0  0
 43 38  1  0  0  0
 44 43  1  0  0  0
 44 93  1  0  0  0
 44 55  1  0  0  0
 46 45  1  0  0  0
 46 47  1  0  0  0
 46 94  1  0  0  0
 47 48  1  0  0  0
 47 77  1  0  0  0
 49 50  1  0  0  0
 50 99  1  0  0  0
 51 76  1  0  0  0
 51 52  1  0  0  0
 53 48  1  0  0  0
 55 80  1  0  0  0
 56 57  1  0  0  0
 57 95  1  0  0  0
 59 58  1  0  0  0
 59 60  1  0  0  0
 59 97  1  0  0  0
 60 61  1  0  0  0
 61 62  1  0  0  0
 61 63  1  0  0  0
 64 86  1  0  0  0
 93 45  1  0  0  0
 94 54  1  0  0  0
 96 58  1  0  0  0
 13 14  2  0  0  0
 15 16  2  0  0  0
 17 12  2  0  0  0
 18 19  2  0  0  0
 20 21  2  0  0  0
 22 23  2  0  0  0
 26 71  2  0  0  0
 28 72  2  0  0  0
 30 73  2  0  0  0
 32 33  2  0  0  0
 34 35  2  0  0  0
 36 37  2  0  0  0
 38 39  2  0  0  0
 40 41  2  0  0  0
 42 43  2  0  0  0
 45 75  2  0  0  0
 48 49  2  0  0  0
 50 51  2  0  0  0
 52 53  2  0  0  0
 54 78  2  0  0  0
 55 79  2  0  0  0
 57 83  2  0  0  0
 58 84  2  0  0  0
M  END
> <rmsd>
0.719472349

$$$$
MCULE-8745617135 LN02124078 MolPort-027-720-872 PubChem-16007240


 73 80  0  0  0  0  0  0  0  0999 V2000
   20.3423   -2.7186  -28.6473 C   0  0  0  0  0
   21.5779   -2.5944  -27.7832 C   0  0  0  0  0
   22.7793   -1.1655  -26.4548 C   0  0  0  0  0
   22.1975   -0.5457  -24.2936 C   0  0  0  0  0
   23.5261   -0.4582  -23.5197 C   0  0  0  0  0
   25.0804   -1.6391  -22.3796 C   0  0  0  0  0
   25.0350   -1.4812  -20.8600 C   0  0  0  0  0
   26.4460   -1.2924  -20.3158 C   0  0  0  0  0
   27.3398   -2.5050  -20.5977 C   0  0  0  0  0
   26.8806   -3.6521  -19.7175 C   0  0  0  0  0
   27.2989   -2.8076  -22.1240 C   0  0  0  0  0
   28.2902   -3.8937  -22.5456 C   0  0  0  0  0
   29.7070   -3.4096  -22.2452 C   0  0  0  0  0
   29.9128   -3.0865  -20.7542 C   0  0  0  0  0
   29.8924   -4.4089  -19.9755 C   0  0  0  0  0
   28.7931   -2.1172  -20.2390 C   0  0  0  0  0
   29.0021   -1.6557  -18.7760 C   0  0  0  0  0
   30.4001   -1.0507  -18.5786 C   0  0  0  0  0
   31.4361   -2.0620  -19.0588 C   0  0  0  0  0
   32.9146   -1.7520  -18.8546 C   0  0  0  0  0
   33.6158   -2.5109  -19.9963 C   0  0  0  0  0
   32.5213   -3.1516  -20.8584 C   0  0  0  0  0
   31.2693   -2.3537  -20.5445 C   0  0  0  0  0
   31.3246   -1.0571  -21.3774 C   0  0  0  0  0
   33.4940   -2.1375  -17.4653 C   0  0  0  0  0
   33.0690   -1.1117  -16.4000 C   0  0  0  0  0
   31.6563   -1.2824  -15.8462 C   0  0  0  0  0
   31.6484   -2.2424  -14.6985 C   0  0  0  0  0
   30.5228   -2.6571  -14.1114 C   0  0  0  0  0
   29.1736   -2.1914  -14.5640 C   0  0  0  0  0
   30.6139   -3.6295  -12.9867 C   0  0  0  0  0
   33.1182   -3.5649  -17.0120 C   0  0  0  0  0
   34.7264   -4.9858  -17.6390 C   0  0  0  0  0
   36.8458   -5.1202  -18.4032 C   0  0  0  0  0
   37.7412   -4.8347  -19.6021 C   0  0  0  0  0
   37.0854   -6.5422  -17.8602 C   0  0  0  0  0
   36.1251   -6.8240  -16.7023 C   0  0  0  0  0
   34.6936   -6.4000  -17.0425 C   0  0  0  0  0
   25.9028   -2.8768  -22.7913 C   0  0  0  0  0
   26.0875   -2.8486  -24.2984 C   0  0  0  0  0
   25.1660   -4.1651  -22.4320 C   0  0  0  0  0
   23.4068    1.7971  -23.2470 C   0  0  0  0  0
   22.0259    2.0017  -23.8676 C   0  0  0  0  0
   21.7853    0.8458  -24.8423 C   0  0  0  0  0
   19.5083    0.5581  -24.7121 C   0  0  0  0  0
   18.2238   -1.1163  -23.9125 C   0  0  0  0  0
   16.9014   -0.3654  -24.0799 C   0  0  0  0  0
   17.1624    1.1428  -24.0559 C   0  0  0  0  0
   18.3333    1.5082  -24.9715 C   0  0  0  0  0
   24.0757   -1.9352  -26.7587 C   0  0  0  0  0
   24.0868   -2.5261  -28.1748 C   0  0  0  0  0
   22.7730   -3.2475  -28.4888 C   0  0  0  0  0
   21.8328   -1.2359  -27.5049 O   0  0  0  0  0
   22.2018   -1.5980  -25.2423 O   0  0  0  0  0
   23.7694   -1.6886  -22.8845 O   0  0  0  0  0
   26.7976   -4.8009  -20.1275 O   0  0  0  0  0
   34.8869   -2.0564  -17.5379 O   0  0  0  0  0
   33.4348   -4.5494  -17.9574 O   0  0  0  0  0
   35.5049   -4.9903  -18.8076 O   0  0  0  0  0
   39.0226   -4.4823  -19.1715 O   0  0  0  0  0
   38.3992   -6.6637  -17.4021 O   0  0  0  0  0
   36.1591   -8.1813  -16.3794 O   0  0  0  0  0
   33.9155   -6.4131  -15.8825 O   0  0  0  0  0
   23.4456    0.5715  -22.5540 O   0  0  0  0  0
   21.0666    2.0181  -22.8538 O   0  0  0  0  0
   20.5715    0.8883  -25.5650 O   0  0  0  0  0
   19.1038   -0.7702  -24.9533 O   0  0  0  0  0
   16.0389   -0.7096  -23.0407 O   0  0  0  0  0
   16.0108    1.8231  -24.4648 O   0  0  0  0  0
   18.7248    2.8256  -24.7258 O   0  0  0  0  0
   25.1752   -1.0964  -26.5763 O   0  0  0  0  0
   24.2992   -1.5208  -29.1197 O   0  0  0  0  0
   22.8673   -4.5850  -28.1047 O   0  0  0  0  0
  2  1  1  0  0  0
  2 53  1  0  0  0
  3 53  1  0  0  0
  3 54  1  0  0  0
  3 50  1  0  0  0
  4 54  1  0  0  0
  4  5  1  0  0  0
  5 55  1  0  0  0
  5 64  1  0  0  0
  6 55  1  0  0  0
  6  7  1  0  0  0
  7  8  1  0  0  0
  8  9  1  0  0  0
  9 10  1  0  0  0
  9 11  1  0  0  0
 11 12  1  0  0  0
 11 39  1  0  0  0
 12 13  1  0  0  0
 13 14  1  0  0  0
 14 15  1  0  0  0
 14 16  1  0  0  0
 16 17  1  0  0  0
 16  9  1  0  0  0
 17 18  1  0  0  0
 19 18  1  0  0  0
 19 20  1  0  0  0
 20 21  1  0  0  0
 20 25  1  0  0  0
 21 22  1  0  0  0
 22 23  1  0  0  0
 23 24  1  0  0  0
 23 19  1  0  0  0
 23 14  1  0  0  0
 25 57  1  0  0  0
 25 26  1  0  0  0
 25 32  1  0  0  0
 26 27  1  0  0  0
 27 28  1  0  0  0
 30 29  1  0  0  0
 31 29  1  0  0  0
 32 58  1  0  0  0
 33 58  1  0  0  0
 33 59  1  0  0  0
 34 59  1  0  0  0
 34 35  1  0  0  0
 34 36  1  0  0  0
 35 60  1  0  0  0
 36 61  1  0  0  0
 36 37  1  0  0  0
 37 62  1  0  0  0
 37 38  1  0  0  0
 38 63  1  0  0  0
 38 33  1  0  0  0
 39 40  1  0  0  0
 39 41  1  0  0  0
 39  6  1  0  0  0
 42 64  1  0  0  0
 42 43  1  0  0  0
 43 65  1  0  0  0
 43 44  1  0  0  0
 44 66  1  0  0  0
 44  4  1  0  0  0
 45 66  1  0  0  0
 45 67  1  0  0  0
 46 67  1  0  0  0
 46 47  1  0  0  0
 47 68  1  0  0  0
 47 48  1  0  0  0
 48 69  1  0  0  0
 48 49  1  0  0  0
 49 70  1  0  0  0
 49 45  1  0  0  0
 50 71  1  0  0  0
 50 51  1  0  0  0
 51 72  1  0  0  0
 51 52  1  0  0  0
 52 73  1  0  0  0
 52  2  1  0  0  0
 10 56  2  0  0  0
 28 29  2  0  0  0
M  END
> <rmsd>
0.716572046

$$$$
MCULE-2081200545 CHEMBL3357163 MolPort-046-836-847 PubChem-15940177


 67 73  0  0  0  0  0  0  0  0999 V2000
   21.5062    0.3894  -22.3678 C   0  0  0  0  0
   21.4362   -1.0833  -22.6041 C   0  0  0  0  0
   22.4895   -1.8803  -22.4088 C   0  0  0  0  0
   23.8160   -1.3781  -21.9272 C   0  0  0  0  0
   24.8277   -2.5212  -21.8681 C   0  0  0  0  0
   25.5632   -2.7675  -23.1878 C   0  0  0  0  0
   26.4015   -1.5054  -23.4812 C   0  0  0  0  0
   26.4846   -4.0153  -23.0173 C   0  0  0  0  0
   27.1806   -4.3544  -24.3471 C   0  0  0  0  0
   28.6869   -4.2732  -24.1207 C   0  0  0  0  0
   28.8501   -4.5628  -22.6461 C   0  0  0  0  0
   27.6547   -3.8349  -22.0254 C   0  0  0  0  0
   27.5321   -4.1855  -20.5261 C   0  0  0  0  0
   28.8131   -3.7345  -19.7999 C   0  0  0  0  0
   30.0528   -4.3381  -20.4779 C   0  0  0  0  0
   30.1503   -4.0202  -21.9965 C   0  0  0  0  0
   31.4253   -4.6116  -22.6384 C   0  0  0  0  0
   32.1727   -5.6960  -21.8407 C   0  0  0  0  0
   32.1971   -5.5141  -20.3061 C   0  0  0  0  0
   31.3909   -4.3338  -19.7233 C   0  0  0  0  0
   31.1897   -4.5874  -18.2261 C   0  0  0  0  0
   32.5309   -4.7445  -17.5108 C   0  0  0  0  0
   33.2996   -5.9419  -18.0718 C   0  0  0  0  0
   33.5251   -5.8586  -19.5960 C   0  0  0  0  0
   34.5936   -4.8311  -19.9404 C   0  0  0  0  0
   34.0157   -7.2205  -20.0618 C   0  0  0  0  0
   34.4398   -7.1788  -16.4931 C   0  0  0  0  0
   33.9171   -6.7303  -15.1186 C   0  0  0  0  0
   33.0224   -7.7981  -14.4699 C   0  0  0  0  0
   33.4666   -9.2341  -14.7839 C   0  0  0  0  0
   34.1023   -9.3726  -16.1811 C   0  0  0  0  0
   33.6706  -10.6760  -16.8303 C   0  0  0  0  0
   34.8183   -5.1451  -13.8313 C   0  0  0  0  0
   35.5518   -4.9691  -12.4972 C   0  0  0  0  0
   35.3883   -3.5298  -12.0033 C   0  0  0  0  0
   35.6399   -2.5162  -13.1230 C   0  0  0  0  0
   34.8895   -2.9547  -14.3894 C   0  0  0  0  0
   35.1445   -1.9700  -15.5255 C   0  0  0  0  0
   32.1145   -2.9971  -19.9045 C   0  0  0  0  0
   30.2416   -2.5064  -22.2101 C   0  0  0  0  0
   28.7333   -6.0866  -22.4533 C   0  0  0  0  0
   24.9794   -2.7770  -25.4777 C   0  0  0  0  0
   24.3911   -3.8299  -26.4259 C   0  0  0  0  0
   24.9190   -3.5649  -27.8346 C   0  0  0  0  0
   24.7391   -2.0924  -28.2209 C   0  0  0  0  0
   25.2171   -1.1858  -27.0727 C   0  0  0  0  0
   24.9584    0.2692  -27.4236 C   0  0  0  0  0
   20.1635   -1.6797  -23.0952 C   0  0  0  0  0
   34.5268   -6.0968  -17.3989 O   0  0  0  0  0
   33.7435   -8.2961  -17.0074 O   0  0  0  0  0
   34.2981  -11.7475  -16.1984 O   0  0  0  0  0
   34.3727   -9.6676  -13.8130 O   0  0  0  0  0
   31.7014   -7.6188  -14.8904 O   0  0  0  0  0
   35.0103   -6.4536  -14.2914 O   0  0  0  0  0
   35.3313   -4.2349  -14.7759 O   0  0  0  0  0
   34.3268   -2.2762  -16.6131 O   0  0  0  0  0
   35.1957   -1.2551  -12.7146 O   0  0  0  0  0
   36.2761   -3.2948  -10.9512 O   0  0  0  0  0
   35.0269   -5.8497  -11.5502 O   0  0  0  0  0
   31.6565   -6.9528  -22.1511 O   0  0  0  0  0
   26.4461   -3.5502  -19.9336 O   0  0  0  0  0
   24.5495   -3.0285  -24.1590 O   0  0  0  0  0
   24.5342   -1.5027  -25.8795 O   0  0  0  0  0
   25.4465    1.0960  -26.4108 O   0  0  0  0  0
   25.4753   -1.8275  -29.3762 O   0  0  0  0  0
   24.2598   -4.3800  -28.7571 O   0  0  0  0  0
   24.7642   -5.1146  -26.0200 O   0  0  0  0  0
  1  2  1  0  0  0
  4  3  1  0  0  0
  4  5  1  0  0  0
  6  5  1  0  0  0
  6  7  1  0  0  0
  6  8  1  0  0  0
  6 62  1  0  0  0
  8  9  1  0  0  0
  9 10  1  0  0  0
 10 11  1  0  0  0
 11 41  1  0  0  0
 12 11  1  0  0  0
 12 13  1  0  0  0
 12  8  1  0  0  0
 13 14  1  0  0  0
 13 61  1  0  0  0
 15 14  1  0  0  0
 15 16  1  0  0  0
 16 17  1  0  0  0
 16 40  1  0  0  0
 16 11  1  0  0  0
 17 18  1  0  0  0
 18 19  1  0  0  0
 18 60  1  0  0  0
 19 20  1  0  0  0
 19 24  1  0  0  0
 20 21  1  0  0  0
 20 39  1  0  0  0
 20 15  1  0  0  0
 21 22  1  0  0  0
 22 23  1  0  0  0
 23 24  1  0  0  0
 23 49  1  0  0  0
 24 25  1  0  0  0
 24 26  1  0  0  0
 27 49  1  0  0  0
 27 28  1  0  0  0
 27 50  1  0  0  0
 28 29  1  0  0  0
 28 54  1  0  0  0
 29 30  1  0  0  0
 29 53  1  0  0  0
 30 31  1  0  0  0
 30 52  1  0  0  0
 31 50  1  0  0  0
 31 32  1  0  0  0
 32 51  1  0  0  0
 33 54  1  0  0  0
 33 34  1  0  0  0
 33 55  1  0  0  0
 34 35  1  0  0  0
 34 59  1  0  0  0
 35 36  1  0  0  0
 35 58  1  0  0  0
 36 37  1  0  0  0
 36 57  1  0  0  0
 37 55  1  0  0  0
 37 38  1  0  0  0
 38 56  1  0  0  0
 42 62  1  0  0  0
 42 43  1  0  0  0
 42 63  1  0  0  0
 43 44  1  0  0  0
 43 67  1  0  0  0
 44 45  1  0  0  0
 44 66  1  0  0  0
 45 46  1  0  0  0
 45 65  1  0  0  0
 46 63  1  0  0  0
 46 47  1  0  0  0
 47 64  1  0  0  0
 48  2  1  0  0  0
  2  3  2  0  0  0
M  END
> <rmsd>
0.782904804

$$$$
MCULE-5835629792 CHEMBL416615 LN04552873 MolPort-046-801-711 PubChem-5388496


 56 63  0  0  0  0  0  0  0  0999 V2000
   31.1820   -3.3197  -20.0149 C   0  0  0  0  0
   30.6522   -2.6960  -21.1631 C   0  0  0  0  0
   29.3067   -2.8672  -21.4989 C   0  0  0  0  0
   28.8115   -2.3725  -22.7230 C   0  0  0  0  0
   27.4987   -2.7469  -23.1229 C   0  0  0  0  0
   27.0217   -2.5799  -24.5162 C   0  0  0  0  0
   27.2994   -3.5561  -25.5138 C   0  0  0  0  0
   28.1717   -4.7372  -25.2807 C   0  0  0  0  0
   30.0441   -5.7760  -24.0212 C   0  0  0  0  0
   31.1877   -5.2465  -23.1579 C   0  0  0  0  0
   32.0068   -6.3280  -22.4389 C   0  0  0  0  0
   32.6579   -6.2781  -20.0536 C   0  0  0  0  0
   33.2620   -5.5563  -18.9086 C   0  0  0  0  0
   33.2566   -4.1394  -18.7948 C   0  0  0  0  0
   32.5899   -3.2856  -19.8100 C   0  0  0  0  0
   33.3981   -2.5170  -20.6745 C   0  0  0  0  0
   32.8362   -1.8421  -21.7636 C   0  0  0  0  0
   31.4730   -1.9649  -22.0362 C   0  0  0  0  0
   29.6975   -1.6006  -23.5168 C   0  0  0  0  0
   33.8516   -3.5321  -17.6702 C   0  0  0  0  0
   34.4376   -4.3171  -16.6706 C   0  0  0  0  0
   34.4251   -5.7098  -16.7773 C   0  0  0  0  0
   33.8385   -6.3192  -17.8852 C   0  0  0  0  0
   32.9977   -6.9781  -23.4128 C   0  0  0  0  0
   33.7576   -5.9380  -24.2347 C   0  0  0  0  0
   32.7381   -4.9802  -24.8498 C   0  0  0  0  0
   26.7321   -3.4025  -26.7859 C   0  0  0  0  0
   25.9191   -2.3103  -27.0857 C   0  0  0  0  0
   25.6539   -1.3471  -26.1094 C   0  0  0  0  0
   26.1956   -1.4823  -24.8263 C   0  0  0  0  0
   26.6737   -3.4565  -22.2266 C   0  0  0  0  0
   27.1618   -3.8647  -20.9815 C   0  0  0  0  0
   28.4899   -3.6134  -20.6347 C   0  0  0  0  0
   30.2645   -3.9793  -19.1562 C   0  0  0  0  0
   28.0517   -5.7598  -26.0105 O   0  0  0  0  0
   29.1612   -4.6977  -24.2977 O   0  0  0  0  0
   32.6967   -5.7333  -21.3409 O   0  0  0  0  0
   32.1393   -7.4133  -19.8674 O   0  0  0  0  0
   30.9631   -1.4299  -23.1415 O   0  0  0  0  0
   29.3137   -1.0633  -24.5891 O   0  0  0  0  0
   33.6469   -1.0892  -22.6064 O   0  0  0  0  0
   34.7741   -2.4495  -20.4737 O   0  0  0  0  0
   34.9949   -6.4954  -15.7832 O   0  0  0  0  0
   35.0255   -3.7109  -15.5658 O   0  0  0  0  0
   33.8472   -2.1466  -17.5348 O   0  0  0  0  0
   32.0026   -4.3139  -23.8466 O   0  0  0  0  0
   33.3860   -4.0440  -25.6557 O   0  0  0  0  0
   34.6621   -5.2356  -23.4315 O   0  0  0  0  0
   33.8805   -7.8252  -22.7397 O   0  0  0  0  0
   25.9085   -0.5250  -23.8576 O   0  0  0  0  0
   24.8453   -0.2568  -26.4114 O   0  0  0  0  0
   25.3770   -2.1871  -28.3587 O   0  0  0  0  0
   28.9852   -4.0993  -19.5018 O   0  0  0  0  0
   30.6301   -4.4561  -18.0496 O   0  0  0  0  0
   26.3360   -4.5643  -20.1079 O   0  0  0  0  0
   25.3706   -3.7882  -22.5873 O   0  0  0  0  0
  2  3  1  0  0  0
  3  4  1  0  0  0
  5  6  1  0  0  0
  5 31  1  0  0  0
  7  8  1  0  0  0
  7 27  1  0  0  0
  8 36  1  0  0  0
  9 36  1  0  0  0
  9 10  1  0  0  0
 10 11  1  0  0  0
 10 46  1  0  0  0
 11 37  1  0  0  0
 11 24  1  0  0  0
 12 37  1  0  0  0
 12 13  1  0  0  0
 14 15  1  0  0  0
 14 20  1  0  0  0
 15  1  1  0  0  0
 16 17  1  0  0  0
 16 42  1  0  0  0
 17 41  1  0  0  0
 18 39  1  0  0  0
 18  2  1  0  0  0
 19 39  1  0  0  0
 19  4  1  0  0  0
 20 45  1  0  0  0
 21 22  1  0  0  0
 21 44  1  0  0  0
 22 43  1  0  0  0
 23 13  1  0  0  0
 24 25  1  0  0  0
 24 49  1  0  0  0
 25 26  1  0  0  0
 25 48  1  0  0  0
 26 46  1  0  0  0
 26 47  1  0  0  0
 28 29  1  0  0  0
 28 52  1  0  0  0
 29 51  1  0  0  0
 30 50  1  0  0  0
 30  6  1  0  0  0
 31 56  1  0  0  0
 32 33  1  0  0  0
 32 55  1  0  0  0
 33 53  1  0  0  0
 34 53  1  0  0  0
 34  1  1  0  0  0
  1  2  2  0  0  0
  4  5  2  0  0  0
  6  7  2  0  0  0
  8 35  2  0  0  0
 12 38  2  0  0  0
 13 14  2  0  0  0
 15 16  2  0  0  0
 17 18  2  0  0  0
 19 40  2  0  0  0
 20 21  2  0  0  0
 22 23  2  0  0  0
 27 28  2  0  0  0
 29 30  2  0  0  0
 31 32  2  0  0  0
 33  3  2  0  0  0
 34 54  2  0  0  0
M  END
> <rmsd>
0.726737559

$$$$
MCULE-5835629792 CHEMBL416615 LN04552873 MolPort-046-801-711 PubChem-5388496


 56 63  0  0  0  0  0  0  0  0999 V2000
   28.8471   -2.4721  -22.7805 C   0  0  0  0  0
   29.3334   -2.8747  -21.5198 C   0  0  0  0  0
   30.6944   -2.7640  -21.2231 C   0  0  0  0  0
   31.2065   -3.3043  -20.0254 C   0  0  0  0  0
   32.6180   -3.3593  -19.8569 C   0  0  0  0  0
   33.2553   -4.2068  -18.8214 C   0  0  0  0  0
   33.5125   -5.5873  -19.0525 C   0  0  0  0  0
   33.0660   -6.3082  -20.2738 C   0  0  0  0  0
   31.4613   -6.4921  -22.1612 C   0  0  0  0  0
   30.0689   -5.9347  -22.4509 C   0  0  0  0  0
   29.5493   -6.2037  -23.8705 C   0  0  0  0  0
   28.4967   -4.5241  -25.3493 C   0  0  0  0  0
   27.4854   -3.4610  -25.5592 C   0  0  0  0  0
   26.9886   -2.6443  -24.5072 C   0  0  0  0  0
   27.4990   -2.7774  -23.1193 C   0  0  0  0  0
   26.6498   -3.3425  -22.1442 C   0  0  0  0  0
   27.1377   -3.6614  -20.8724 C   0  0  0  0  0
   28.4870   -3.4702  -20.5715 C   0  0  0  0  0
   30.2715   -3.8389  -19.1029 C   0  0  0  0  0
   26.0283   -1.6528  -24.7938 C   0  0  0  0  0
   25.5719   -1.4690  -26.1040 C   0  0  0  0  0
   26.0758   -2.2615  -27.1381 C   0  0  0  0  0
   27.0259   -3.2439  -26.8644 C   0  0  0  0  0
   29.0332   -7.6439  -23.9823 C   0  0  0  0  0
   28.1287   -8.0200  -22.8096 C   0  0  0  0  0
   28.8563   -7.6635  -21.5140 C   0  0  0  0  0
   34.2156   -6.3152  -18.0833 C   0  0  0  0  0
   34.6497   -5.7126  -16.9034 C   0  0  0  0  0
   34.3894   -4.3599  -16.6721 C   0  0  0  0  0
   33.7016   -3.6052  -17.6289 C   0  0  0  0  0
   33.4567   -2.7332  -20.8013 C   0  0  0  0  0
   32.9180   -2.1296  -21.9417 C   0  0  0  0  0
   31.5439   -2.1846  -22.1788 C   0  0  0  0  0
   29.7611   -1.8181  -23.6472 C   0  0  0  0  0
   33.6570   -7.3649  -20.6301 O   0  0  0  0  0
   31.9604   -5.8543  -20.9938 O   0  0  0  0  0
   28.5106   -5.2721  -24.1679 O   0  0  0  0  0
   29.3268   -4.7802  -26.2646 O   0  0  0  0  0
   28.9773   -3.8912  -19.4095 O   0  0  0  0  0
   30.6388   -4.2761  -17.9806 O   0  0  0  0  0
   26.2876   -4.2184  -19.9229 O   0  0  0  0  0
   25.3206   -3.6231  -22.4487 O   0  0  0  0  0
   25.6355   -2.0768  -28.4427 O   0  0  0  0  0
   24.6222   -0.4911  -26.3787 O   0  0  0  0  0
   25.5373   -0.8355  -23.7794 O   0  0  0  0  0
   29.1259   -6.2798  -21.4511 O   0  0  0  0  0
   28.0875   -8.0416  -20.4132 O   0  0  0  0  0
   26.9091   -7.3392  -22.8858 O   0  0  0  0  0
   28.3835   -7.8510  -25.2009 O   0  0  0  0  0
   33.4648   -2.2539  -17.3940 O   0  0  0  0  0
   34.8203   -3.7616  -15.4932 O   0  0  0  0  0
   35.3401   -6.4655  -15.9620 O   0  0  0  0  0
   31.0453   -1.7118  -23.3158 O   0  0  0  0  0
   29.3839   -1.3166  -24.7389 O   0  0  0  0  0
   33.7583   -1.5159  -22.8647 O   0  0  0  0  0
   34.8376   -2.7388  -20.6238 O   0  0  0  0  0
  2  3  1  0  0  0
  3  4  1  0  0  0
  5  6  1  0  0  0
  5 31  1  0  0  0
  7  8  1  0  0  0
  7 27  1  0  0  0
  8 36  1  0  0  0
  9 36  1  0  0  0
  9 10  1  0  0  0
 10 11  1  0  0  0
 10 46  1  0  0  0
 11 37  1  0  0  0
 11 24  1  0  0  0
 12 37  1  0  0  0
 12 13  1  0  0  0
 14 15  1  0  0  0
 14 20  1  0  0  0
 15  1  1  0  0  0
 16 17  1  0  0  0
 16 42  1  0  0  0
 17 41  1  0  0  0
 18 39  1  0  0  0
 18  2  1  0  0  0
 19 39  1  0  0  0
 19  4  1  0  0  0
 20 45  1  0  0  0
 21 22  1  0  0  0
 21 44  1  0  0  0
 22 43  1  0  0  0
 23 13  1  0  0  0
 24 25  1  0  0  0
 24 49  1  0  0  0
 25 26  1  0  0  0
 25 48  1  0  0  0
 26 46  1  0  0  0
 26 47  1  0  0  0
 28 29  1  0  0  0
 28 52  1  0  0  0
 29 51  1  0  0  0
 30 50  1  0  0  0
 30  6  1  0  0  0
 31 56  1  0  0  0
 32 33  1  0  0  0
 32 55  1  0  0  0
 33 53  1  0  0  0
 34 53  1  0  0  0
 34  1  1  0  0  0
  1  2  2  0  0  0
  4  5  2  0  0  0
  6  7  2  0  0  0
  8 35  2  0  0  0
 12 38  2  0  0  0
 13 14  2  0  0  0
 15 16  2  0  0  0
 17 18  2  0  0  0
 19 40  2  0  0  0
 20 21  2  0  0  0
 22 23  2  0  0  0
 27 28  2  0  0  0
 29 30  2  0  0  0
 31 32  2  0  0  0
 33  3  2  0  0  0
 34 54  2  0  0  0
M  END
> <rmsd>
0.796304226

$$$$
MCULE-5835629792 CHEMBL416615 LN04552873 MolPort-046-801-711 PubChem-5388496


 56 63  0  0  0  0  0  0  0  0999 V2000
   31.2128   -3.2488  -20.0119 C   0  0  0  0  0
   30.7060   -2.6891  -21.2008 C   0  0  0  0  0
   29.3630   -2.8630  -21.5421 C   0  0  0  0  0
   28.8818   -2.4054  -22.7850 C   0  0  0  0  0
   27.5650   -2.7743  -23.1786 C   0  0  0  0  0
   27.0758   -2.5926  -24.5656 C   0  0  0  0  0
   27.5801   -3.3686  -25.6484 C   0  0  0  0  0
   28.6685   -4.3800  -25.5199 C   0  0  0  0  0
   30.3738   -5.4979  -24.1465 C   0  0  0  0  0
   30.6468   -5.8892  -22.6902 C   0  0  0  0  0
   32.1273   -6.2563  -22.5003 C   0  0  0  0  0
   32.5089   -6.1752  -20.0106 C   0  0  0  0  0
   33.1714   -5.5016  -18.8722 C   0  0  0  0  0
   33.2580   -4.0888  -18.7724 C   0  0  0  0  0
   32.6176   -3.2188  -19.7900 C   0  0  0  0  0
   33.4455   -2.5019  -20.6796 C   0  0  0  0  0
   32.9042   -1.8787  -21.8096 C   0  0  0  0  0
   31.5438   -2.0063  -22.0959 C   0  0  0  0  0
   29.7793   -1.6600  -23.5928 C   0  0  0  0  0
   33.9034   -3.5097  -17.6621 C   0  0  0  0  0
   34.4489   -4.3232  -16.6616 C   0  0  0  0  0
   34.3429   -5.7143  -16.7541 C   0  0  0  0  0
   33.7048   -6.2948  -17.8498 C   0  0  0  0  0
   32.5029   -7.7242  -22.7724 C   0  0  0  0  0
   31.3375   -8.7136  -22.6448 C   0  0  0  0  0
   29.9957   -8.0672  -22.9912 C   0  0  0  0  0
   27.0554   -3.1502  -26.9311 C   0  0  0  0  0
   26.0565   -2.2056  -27.1565 C   0  0  0  0  0
   25.5618   -1.4470  -26.0950 C   0  0  0  0  0
   26.0676   -1.6356  -24.8049 C   0  0  0  0  0
   26.7306   -3.4550  -22.2667 C   0  0  0  0  0
   27.2058   -3.8221  -21.0046 C   0  0  0  0  0
   28.5300   -3.5616  -20.6535 C   0  0  0  0  0
   30.2785   -3.8526  -19.1302 C   0  0  0  0  0
   29.1903   -4.8548  -26.5674 O   0  0  0  0  0
   29.1362   -4.8076  -24.2726 O   0  0  0  0  0
   32.7161   -5.7089  -21.3165 O   0  0  0  0  0
   31.7687   -7.1696  -19.7926 O   0  0  0  0  0
   31.0473   -1.5012  -23.2207 O   0  0  0  0  0
   29.4022   -1.1305  -24.6712 O   0  0  0  0  0
   33.7318   -1.1703  -22.6743 O   0  0  0  0  0
   34.8198   -2.4416  -20.4657 O   0  0  0  0  0
   34.8705   -6.5261  -15.7580 O   0  0  0  0  0
   35.0882   -3.7471  -15.5693 O   0  0  0  0  0
   33.9872   -2.1258  -17.5401 O   0  0  0  0  0
   29.7799   -6.9047  -22.2241 O   0  0  0  0  0
   28.9519   -8.9700  -22.7863 O   0  0  0  0  0
   31.3078   -9.2781  -21.3694 O   0  0  0  0  0
   33.0535   -7.8254  -24.0494 O   0  0  0  0  0
   25.5700   -0.8627  -23.7592 O   0  0  0  0  0
   24.5669   -0.5020  -26.3212 O   0  0  0  0  0
   25.5608   -2.0235  -28.4414 O   0  0  0  0  0
   29.0054   -3.9891  -19.4893 O   0  0  0  0  0
   30.6237   -4.2604  -17.9898 O   0  0  0  0  0
   26.3686   -4.4854  -20.1136 O   0  0  0  0  0
   25.4299   -3.7982  -22.6257 O   0  0  0  0  0
  2  3  1  0  0  0
  3  4  1  0  0  0
  5  6  1  0  0  0
  5 31  1  0  0  0
  7  8  1  0  0  0
  7 27  1  0  0  0
  8 36  1  0  0  0
  9 36  1  0  0  0
  9 10  1  0  0  0
 10 11  1  0  0  0
 10 46  1  0  0  0
 11 37  1  0  0  0
 11 24  1  0  0  0
 12 37  1  0  0  0
 12 13  1  0  0  0
 14 15  1  0  0  0
 14 20  1  0  0  0
 15  1  1  0  0  0
 16 17  1  0  0  0
 16 42  1  0  0  0
 17 41  1  0  0  0
 18 39  1  0  0  0
 18  2  1  0  0  0
 19 39  1  0  0  0
 19  4  1  0  0  0
 20 45  1  0  0  0
 21 22  1  0  0  0
 21 44  1  0  0  0
 22 43  1  0  0  0
 23 13  1  0  0  0
 24 25  1  0  0  0
 24 49  1  0  0  0
 25 26  1  0  0  0
 25 48  1  0  0  0
 26 46  1  0  0  0
 26 47  1  0  0  0
 28 29  1  0  0  0
 28 52  1  0  0  0
 29 51  1  0  0  0
 30 50  1  0  0  0
 30  6  1  0  0  0
 31 56  1  0  0  0
 32 33  1  0  0  0
 32 55  1  0  0  0
 33 53  1  0  0  0
 34 53  1  0  0  0
 34  1  1  0  0  0
  1  2  2  0  0  0
  4  5  2  0  0  0
  6  7  2  0  0  0
  8 35  2  0  0  0
 12 38  2  0  0  0
 13 14  2  0  0  0
 15 16  2  0  0  0
 17 18  2  0  0  0
 19 40  2  0  0  0
 20 21  2  0  0  0
 22 23  2  0  0  0
 27 28  2  0  0  0
 29 30  2  0  0  0
 31 32  2  0  0  0
 33  3  2  0  0  0
 34 54  2  0  0  0
M  END
> <rmsd>
0.706425607

$$$$
MCULE-1019559541


 42 48  0  0  0  0  0  0  0  0999 V2000
   24.8087    0.9251  -27.9559 C   0  0  0  0  0
   25.1391   -0.1526  -28.7518 C   0  0  0  0  0
   25.7261   -1.4460  -28.3751 C   0  0  0  0  0
   26.7793   -1.7006  -27.5218 C   0  0  0  0  0
   27.6599   -0.7309  -26.8488 C   0  0  0  0  0
   28.4569   -0.9169  -25.7374 C   0  0  0  0  0
   27.2585   -2.8050  -24.5911 C   0  0  0  0  0
   27.0019   -2.9154  -23.0879 C   0  0  0  0  0
   29.4810   -3.4502  -23.0784 C   0  0  0  0  0
   29.6904   -2.3018  -24.0629 C   0  0  0  0  0
   28.1159   -3.6175  -20.9691 C   0  0  0  0  0
   29.1198   -3.6971  -20.0220 C   0  0  0  0  0
   30.5218   -3.2571  -20.1202 C   0  0  0  0  0
   31.6205   -3.7550  -19.4484 C   0  0  0  0  0
   31.6979   -4.9699  -18.6169 C   0  0  0  0  0
   32.6824   -5.3596  -17.7272 C   0  0  0  0  0
   24.3252    1.8941  -28.7521 N   0  0  0  0  0
   24.8420    0.1873  -30.0178 N   0  0  0  0  0
   25.3305   -2.6215  -28.8917 N   0  0  0  0  0
   26.9937   -3.0289  -27.5384 N   0  0  0  0  0
   27.9297    0.4974  -27.3226 N   0  0  0  0  0
   29.1815    0.2007  -25.5567 N   0  0  0  0  0
   28.4769   -2.0362  -24.8396 N   0  0  0  0  0
   28.2244   -3.2594  -22.3546 N   0  0  0  0  0
   26.9716   -4.0217  -20.3904 N   0  0  0  0  0
   28.5519   -4.1421  -18.8874 N   0  0  0  0  0
   30.9329   -2.1901  -20.8279 N   0  0  0  0  0
   32.6755   -2.9957  -19.7935 N   0  0  0  0  0
   30.8232   -5.9883  -18.6957 N   0  0  0  0  0
   32.3809   -6.5919  -17.2876 N   0  0  0  0  0
   33.8137   -4.6126  -17.2653 N   0  0  0  0  0
   24.8259    1.0035  -26.5265 N   0  0  0  0  0
   24.3709    1.4026  -29.9601 O   0  0  0  0  0
   26.1065   -3.5214  -28.3556 O   0  0  0  0  0
   28.8294    1.0009  -26.5235 O   0  0  0  0  0
   27.2896   -4.3200  -19.1620 O   0  0  0  0  0
   32.2112   -2.0856  -20.6011 O   0  0  0  0  0
   31.2710   -6.9121  -17.8922 O   0  0  0  0  0
   34.7983   -5.2516  -16.5494 O   0  0  0  0  0
   33.8377   -3.3684  -17.3529 O   0  0  0  0  0
   24.8909   -0.1360  -25.7591 O   0  0  0  0  0
   24.6381    2.1026  -25.9664 O   0  0  0  0  0
  1 32  1  0  0  0
  2  3  1  0  0  0
  2  1  1  0  0  0
  4  5  1  0  0  0
  4  3  1  0  0  0
  6 23  1  0  0  0
  6  5  1  0  0  0
  7 23  1  0  0  0
  7  8  1  0  0  0
  8 24  1  0  0  0
  9 24  1  0  0  0
  9 10  1  0  0  0
 10 23  1  0  0  0
 12 13  1  0  0  0
 12 11  1  0  0  0
 14 15  1  0  0  0
 14 13  1  0  0  0
 16 31  1  0  0  0
 16 15  1  0  0  0
 17 33  1  0  0  0
 19 34  1  0  0  0
 21 35  1  0  0  0
 24 11  1  0  0  0
 25 36  1  0  0  0
 27 37  1  0  0  0
 29 38  1  0  0  0
 31 39  1  0  0  0
 32 41  1  0  0  0
 33 18  1  0  0  0
 34 20  1  0  0  0
 35 22  1  0  0  0
 36 26  1  0  0  0
 37 28  1  0  0  0
 38 30  1  0  0  0
  1 17  2  0  0  0
  2 18  2  0  0  0
  3 19  2  0  0  0
  4 20  2  0  0  0
  5 21  2  0  0  0
  6 22  2  0  0  0
 11 25  2  0  0  0
 12 26  2  0  0  0
 13 27  2  0  0  0
 14 28  2  0  0  0
 15 29  2  0  0  0
 16 30  2  0  0  0
 31 40  2  0  0  0
 32 42  2  0  0  0
M  CHG  4  31   1  39  -1  32   1  41  -1
M  END
> <rmsd>
0.86847806

$$$$
MCULE-7336968936


 60 64  0  0  0  0  0  0  0  0999 V2000
   27.6500   -0.8805  -24.6537 O   0  0  0  0  0
   25.3466   -2.8676  -21.6504 O   0  0  0  0  0
   25.9420   -4.4962  -19.8638 O   0  0  0  0  0
   28.0631   -5.1171  -17.9299 O   0  0  0  0  0
   31.9764   -5.0824  -16.9751 O   0  0  0  0  0
   34.1341   -5.8852  -16.7613 O   0  0  0  0  0
   27.5174    3.3426  -24.3653 O   0  0  0  0  0
   27.3895   -3.0388  -17.0377 O   0  0  0  0  0
   27.8155    1.6462  -18.2604 O   0  0  0  0  0
   27.1669    2.3042  -20.6396 O   0  0  0  0  0
   31.5596    0.9904  -18.5683 O   0  0  0  0  0
   34.2954   -2.6802  -17.1066 O   0  0  0  0  0
   29.6690   -5.7337  -13.6079 O   0  0  0  0  0
   26.3034   -1.1431  -24.7984 N   0  0  0  0  0
   26.5947    1.5181  -23.2782 N   0  0  0  0  0
   25.8056   -1.5107  -26.0651 N   0  0  0  0  0
   24.7922   -1.6448  -28.7199 N   0  0  0  0  0
   25.5149   -1.0892  -23.7654 C   0  0  0  0  0
   25.9810   -0.6953  -22.4202 C   0  0  0  0  0
   25.9271   -1.6355  -21.3832 C   0  0  0  0  0
   26.4620   -1.3296  -20.1086 C   0  0  0  0  0
   26.6254   -2.2880  -19.0734 C   0  0  0  0  0
   26.4250   -3.7424  -18.9813 C   0  0  0  0  0
   26.9635   -4.2392  -17.6765 C   0  0  0  0  0
   25.8840   -4.9284  -16.8593 C   0  0  0  0  0
   29.0442   -5.4905  -17.0023 C   0  0  0  0  0
   29.1077   -5.0067  -15.7663 C   0  0  0  0  0
   30.2159   -5.4265  -14.8579 C   0  0  0  0  0
   31.2767   -4.3108  -14.7284 C   0  0  0  0  0
   32.1395   -4.0751  -15.9810 C   0  0  0  0  0
   33.0131   -5.9457  -17.3334 C   0  0  0  0  0
   32.7894   -6.9506  -18.4037 C   0  0  0  0  0
   31.9379   -2.6679  -16.5597 C   0  0  0  0  0
   33.0363   -2.2910  -17.5734 C   0  0  0  0  0
   33.0704   -0.7913  -17.9180 C   0  0  0  0  0
   31.8607   -0.3607  -18.7748 C   0  0  0  0  0
   32.0642   -0.6036  -20.2780 C   0  0  0  0  0
   30.7943   -0.3066  -20.9971 C   0  0  0  0  0
   30.6886    0.7451  -21.7947 C   0  0  0  0  0
   29.3990    1.0118  -22.4308 C   0  0  0  0  0
   29.0853    2.1459  -23.0608 C   0  0  0  0  0
   27.7126    2.3724  -23.5864 C   0  0  0  0  0
   26.4848    0.5920  -22.1839 C   0  0  0  0  0
   26.8438    0.9713  -20.8810 C   0  0  0  0  0
   26.8965    0.0106  -19.8440 C   0  0  0  0  0
   27.4181    0.3452  -18.5598 C   0  0  0  0  0
   27.5685   -0.6409  -17.5754 C   0  0  0  0  0
   27.1990   -1.9445  -17.8715 C   0  0  0  0  0
   28.1535   -0.3126  -16.2423 C   0  0  0  0  0
   30.1042    3.2313  -23.2127 C   0  0  0  0  0
   32.4546   -2.0383  -20.5880 C   0  0  0  0  0
   33.2385    0.0513  -16.6548 C   0  0  0  0  0
   30.5612   -2.5435  -17.1919 C   0  0  0  0  0
   32.2140   -4.5777  -13.5624 C   0  0  0  0  0
   29.9865   -7.0751  -13.3961 C   0  0  0  0  0
   24.4035   -1.8678  -26.2653 C   0  0  0  0  0
   23.9124   -1.2941  -27.5975 C   0  0  0  0  0
   24.7415   -3.0822  -28.9680 C   0  0  0  0  0
   26.1764   -1.2214  -28.4651 C   0  0  0  0  0
   26.7324   -1.7885  -27.1560 C   0  0  0  0  0
 14  1  1  0  0  0
 14 16  1  0  0  0
 15 43  1  0  0  0
 18 19  1  0  0  0
 20  2  1  0  0  0
 20 21  1  0  0  0
 22 23  1  0  0  0
 24 23  1  0  0  0
 24 25  1  0  0  0
 24  4  1  0  0  0
 24  8  1  0  0  0
 26  4  1  0  0  0
 28 27  1  0  0  0
 28 29  1  0  0  0
 28 13  1  0  0  0
 29 30  1  0  0  0
 29 54  1  0  0  0
 30  5  1  0  0  0
 30 33  1  0  0  0
 31  5  1  0  0  0
 32 31  1  0  0  0
 33 34  1  0  0  0
 33 53  1  0  0  0
 34 35  1  0  0  0
 34 12  1  0  0  0
 35 36  1  0  0  0
 35 52  1  0  0  0
 36 37  1  0  0  0
 36 11  1  0  0  0
 37 38  1  0  0  0
 37 51  1  0  0  0
 39 40  1  0  0  0
 41 42  1  0  0  0
 42 15  1  0  0  0
 43 19  1  0  0  0
 44 45  1  0  0  0
 44 10  1  0  0  0
 45 21  1  0  0  0
 46 47  1  0  0  0
 46  9  1  0  0  0
 48  8  1  0  0  0
 48 22  1  0  0  0
 49 47  1  0  0  0
 50 41  1  0  0  0
 55 13  1  0  0  0
 56 16  1  0  0  0
 56 57  1  0  0  0
 57 17  1  0  0  0
 58 17  1  0  0  0
 59 17  1  0  0  0
 59 60  1  0  0  0
 60 16  1  0  0  0
 14 18  2  0  0  0
 19 20  2  0  0  0
 21 22  2  0  0  0
 23  3  2  0  0  0
 26 27  2  0  0  0
 31  6  2  0  0  0
 38 39  2  0  0  0
 40 41  2  0  0  0
 42  7  2  0  0  0
 43 44  2  0  0  0
 45 46  2  0  0  0
 47 48  2  0  0  0
M  CHG  2   1  -1  14   1
M  END
> <rmsd>
0.569818258

$$$$
MCULE-9525666003 PubChem-74603609


 29 30  0  0  0  0  0  0  0  0999 V2000
   31.3911   -3.4171  -19.3500 C   0  0  0  0  0
   32.6659   -3.5361  -18.7897 C   0  0  0  0  0
   33.8078   -3.4496  -19.6010 C   0  0  0  0  0
   33.6578   -3.2432  -20.9759 C   0  0  0  0  0
   32.3833   -3.1241  -21.5371 C   0  0  0  0  0
   31.2421   -3.2108  -20.7248 C   0  0  0  0  0
   29.8871   -3.0904  -21.2792 C   0  0  0  0  0
   29.6544   -2.8931  -22.5761 C   0  0  0  0  0
   28.2987   -2.7730  -23.1287 C   0  0  0  0  0
   28.1459   -2.5662  -24.5027 C   0  0  0  0  0
   26.8726   -2.4465  -25.0677 C   0  0  0  0  0
   25.7414   -2.5354  -24.2422 C   0  0  0  0  0
   25.8774   -2.7419  -22.8668 C   0  0  0  0  0
   27.1605   -2.8602  -22.3138 C   0  0  0  0  0
   24.7263   -2.8246  -22.0784 O   0  0  0  0  0
   23.3601   -3.0895  -19.8555 O   0  0  0  0  0
   25.4214   -4.3957  -20.0877 O   0  0  0  0  0
   25.6282   -1.8399  -19.6497 O   0  0  0  0  0
   26.7631   -2.2402  -26.4459 O   0  0  0  0  0
   24.4587   -3.3368  -27.0807 O   0  0  0  0  0
   25.5128   -1.8474  -28.7175 O   0  0  0  0  0
   24.4158   -0.7768  -26.6204 O   0  0  0  0  0
   35.0968   -3.5644  -19.0725 O   0  0  0  0  0
   36.8943   -3.9139  -17.1953 O   0  0  0  0  0
   34.8683   -2.6634  -16.6124 O   0  0  0  0  0
   34.6805   -5.2415  -16.9054 O   0  0  0  0  0
   24.7648   -3.0778  -20.3876 S   0  0  0  0  0
   25.2647   -2.0804  -27.2544 S   0  0  0  0  0
   35.4109   -3.8154  -17.4103 S   0  0  0  0  0
  2  3  1  0  0  0
  3 23  1  0  0  0
  4  5  1  0  0  0
  6  7  1  0  0  0
  6  1  1  0  0  0
  8  9  1  0  0  0
 10 11  1  0  0  0
 11 19  1  0  0  0
 12 13  1  0  0  0
 13 15  1  0  0  0
 14  9  1  0  0  0
 27 15  1  0  0  0
 27 18  1  0  0  0
 28 19  1  0  0  0
 28 22  1  0  0  0
 29 23  1  0  0  0
 29 26  1  0  0  0
  1  2  2  0  0  0
  3  4  2  0  0  0
  5  6  2  0  0  0
  7  8  2  0  0  0
  9 10  2  0  0  0
 11 12  2  0  0  0
 13 14  2  0  0  0
 27 16  2  0  0  0
 27 17  2  0  0  0
 28 20  2  0  0  0
 28 21  2  0  0  0
 29 24  2  0  0  0
 29 25  2  0  0  0
M  END
> <rmsd>
0.865274489

$$$$
MCULE-2000312257 MolPort-039-339-026 PubChem-72941763


 47 55  0  0  0  0  0  0  0  0999 V2000
   30.0190   -4.9708  -17.4173 C   0  0  0  0  0
   31.3148   -4.7304  -18.1641 C   0  0  0  0  0
   32.4270   -4.5294  -17.1374 C   0  0  0  0  0
   33.7531   -4.0682  -17.7814 C   0  0  0  0  0
   35.6398   -3.1677  -16.9015 C   0  0  0  0  0
   35.9174   -4.6318  -17.0795 C   0  0  0  0  0
   37.2469   -5.1911  -17.5395 C   0  0  0  0  0
   34.7473   -5.2209  -17.7077 C   0  0  0  0  0
   32.5480   -2.7905  -19.2804 C   0  0  0  0  0
   32.5393   -2.2505  -20.7145 C   0  0  0  0  0
   31.1129   -2.4533  -21.2062 C   0  0  0  0  0
   30.3043   -1.2267  -20.7593 C   0  0  0  0  0
   30.9255   -2.5944  -22.6939 C   0  0  0  0  0
   31.7098   -1.9264  -23.5614 C   0  0  0  0  0
   31.5025   -2.0145  -25.0463 C   0  0  0  0  0
   30.0037   -2.0496  -25.3897 C   0  0  0  0  0
   29.2306   -3.1206  -24.5907 C   0  0  0  0  0
   29.9714   -4.4012  -24.2319 C   0  0  0  0  0
   29.6884   -3.3531  -23.1566 C   0  0  0  0  0
   28.6607   -3.8669  -22.1205 C   0  0  0  0  0
   29.1305   -3.8842  -20.6408 C   0  0  0  0  0
   27.3078   -5.2581  -19.6872 C   0  0  0  0  0
   26.8819   -6.5310  -19.0503 C   0  0  0  0  0
   30.6610   -3.7419  -20.4912 C   0  0  0  0  0
   31.3513   -4.9917  -21.0814 C   0  0  0  0  0
   31.1864   -3.4915  -19.0685 C   0  0  0  0  0
   27.7517   -3.3017  -24.9076 C   0  0  0  0  0
   27.5666   -3.4300  -26.4142 C   0  0  0  0  0
   28.1902   -2.2328  -27.1431 C   0  0  0  0  0
   26.9265   -1.3253  -28.8307 C   0  0  0  0  0
   26.4707    0.8510  -29.1292 C   0  0  0  0  0
   25.1095    0.8553  -28.4215 C   0  0  0  0  0
   24.8482   -0.4400  -27.6384 C   0  0  0  0  0
   25.5317   -1.6642  -28.2611 C   0  0  0  0  0
   29.7171   -2.1436  -26.9053 C   0  0  0  0  0
   30.2457   -0.8868  -27.5791 C   0  0  0  0  0
   30.4221   -3.3507  -27.5213 C   0  0  0  0  0
   34.2588   -2.9623  -17.0576 O   0  0  0  0  0
   35.0895   -5.5068  -16.3642 O   0  0  0  0  0
   33.6026   -3.7163  -19.1473 O   0  0  0  0  0
   28.6551   -5.0628  -19.9980 O   0  0  0  0  0
   26.4503   -4.3675  -19.9312 O   0  0  0  0  0
   27.8924   -2.3077  -28.5185 O   0  0  0  0  0
   27.3609   -0.0265  -28.4913 O   0  0  0  0  0
   24.0992    1.0512  -29.3622 O   0  0  0  0  0
   25.2880   -0.2832  -26.3235 O   0  0  0  0  0
   24.7310   -2.1886  -29.2753 O   0  0  0  0  0
  2  1  1  0  0  0
  2  3  1  0  0  0
  4  3  1  0  0  0
  4 38  1  0  0  0
  4 40  1  0  0  0
  5 38  1  0  0  0
  5  6  1  0  0  0
  6  7  1  0  0  0
  6 39  1  0  0  0
  8 39  1  0  0  0
  8  4  1  0  0  0
  8  6  1  0  0  0
  9 40  1  0  0  0
  9 10  1  0  0  0
 10 11  1  0  0  0
 11 12  1  0  0  0
 11 13  1  0  0  0
 15 14  1  0  0  0
 16 15  1  0  0  0
 16 17  1  0  0  0
 17 18  1  0  0  0
 17 27  1  0  0  0
 19 18  1  0  0  0
 19 20  1  0  0  0
 19 13  1  0  0  0
 19 17  1  0  0  0
 20 21  1  0  0  0
 21 41  1  0  0  0
 21 24  1  0  0  0
 22 41  1  0  0  0
 23 22  1  0  0  0
 24 25  1  0  0  0
 24 26  1  0  0  0
 24 11  1  0  0  0
 26  2  1  0  0  0
 26  9  1  0  0  0
 27 28  1  0  0  0
 28 29  1  0  0  0
 29 43  1  0  0  0
 29 35  1  0  0  0
 30 43  1  0  0  0
 30 44  1  0  0  0
 31 44  1  0  0  0
 31 32  1  0  0  0
 32 45  1  0  0  0
 32 33  1  0  0  0
 33 46  1  0  0  0
 33 34  1  0  0  0
 34 47  1  0  0  0
 34 30  1  0  0  0
 35 36  1  0  0  0
 35 37  1  0  0  0
 35 16  1  0  0  0
 13 14  2  0  0  0
 22 42  2  0  0  0
M  END
> <rmsd>
0.601128221

$$$$
MCULE-4274587015 PubChem-4921818


 34 37  0  0  0  0  0  0  0  0999 V2000
   22.6566   -0.6031  -26.1830 C   0  0  0  0  0
   24.0994   -0.4633  -26.6145 C   0  0  0  0  0
   25.9534   -2.0154  -25.9751 C   0  0  0  0  0
   26.2943   -2.3834  -27.2986 C   0  0  0  0  0
   27.3350   -3.2882  -27.5221 C   0  0  0  0  0
   28.0434   -3.8307  -26.4498 C   0  0  0  0  0
   27.7110   -3.4819  -25.1402 C   0  0  0  0  0
   26.6666   -2.5786  -24.9105 C   0  0  0  0  0
   28.4858   -4.0496  -24.0342 C   0  0  0  0  0
   28.4604   -4.4070  -20.4181 C   0  0  0  0  0
   29.3742   -4.7981  -19.3327 C   0  0  0  0  0
   30.7459   -4.9746  -19.3927 C   0  0  0  0  0
   32.4677   -5.6298  -17.6994 C   0  0  0  0  0
   32.8638   -5.9333  -16.4272 C   0  0  0  0  0
   31.6530   -4.7117  -20.5563 C   0  0  0  0  0
   32.9081   -2.6175  -19.5208 C   0  0  0  0  0
   34.6734   -2.3155  -18.3779 C   0  0  0  0  0
   35.0681   -2.9145  -20.7746 C   0  0  0  0  0
   24.9472   -1.0884  -25.6610 O   0  0  0  0  0
   27.2719   -4.0859  -20.1503 O   0  0  0  0  0
   34.5384   -6.0249  -17.6919 O   0  0  0  0  0
   25.6225   -1.8623  -28.3979 O   0  0  0  0  0
   28.1172   -3.8989  -22.8047 N   0  0  0  0  0
   28.9029   -4.4279  -21.7753 N   0  0  0  0  0
   31.1410   -5.3148  -18.1502 N   0  0  0  0  0
   30.0690   -5.3410  -17.3725 N   0  0  0  0  0
   28.9810   -5.0258  -18.0631 N   0  0  0  0  0
   33.5560   -5.6923  -18.4876 N   0  0  0  0  0
   34.1816   -6.1855  -16.4469 N   0  0  0  0  0
   32.0416   -6.0298  -15.2668 N   0  0  0  0  0
   32.5123   -2.2953  -18.2771 N   0  0  0  0  0
   33.6155   -2.1107  -17.5636 N   0  0  0  0  0
   34.2460   -2.6344  -19.6111 N   0  0  0  0  0
   31.7843   -2.9222  -20.8822 S   0  0  0  0  0
  1  2  1  0  0  0
  2 19  1  0  0  0
  3 19  1  0  0  0
  4  5  1  0  0  0
  4 22  1  0  0  0
  6  7  1  0  0  0
  7  9  1  0  0  0
  8  3  1  0  0  0
 10 11  1  0  0  0
 11 27  1  0  0  0
 12 25  1  0  0  0
 14 13  1  0  0  0
 15 12  1  0  0  0
 15 34  1  0  0  0
 16 34  1  0  0  0
 17 33  1  0  0  0
 18 33  1  0  0  0
 21 29  1  0  0  0
 24 23  1  0  0  0
 24 10  1  0  0  0
 25 26  1  0  0  0
 25 13  1  0  0  0
 28 21  1  0  0  0
 30 14  1  0  0  0
 31 32  1  0  0  0
 33 16  1  0  0  0
  3  4  2  0  0  0
  5  6  2  0  0  0
  7  8  2  0  0  0
  9 23  2  0  0  0
 10 20  2  0  0  0
 11 12  2  0  0  0
 13 28  2  0  0  0
 14 29  2  0  0  0
 16 31  2  0  0  0
 17 32  2  0  0  0
 26 27  2  0  0  0
M  CHG  2  30   1  22  -1
M  END
> <rmsd>
0.82287395

$$$$
MCULE-4499842526 MolPort-046-692-199 PubChem-9876882


 81 84  0  0  0  0  0  0  0  0999 V2000
   17.8058    3.1378  -39.8689 C   0  0  0  0  0
   18.4065    2.7867  -38.5171 C   0  0  0  0  0
   19.0357    4.0201  -37.8886 C   0  0  0  0  0
   20.3460    4.3911  -38.5635 C   0  0  0  0  0
   21.4574    3.4661  -38.0949 C   0  0  0  0  0
   22.7671    3.8384  -38.7677 C   0  0  0  0  0
   23.2887    5.1919  -38.2987 C   0  0  0  0  0
   24.0695    5.0667  -37.0037 C   0  0  0  0  0
   23.1274    4.9621  -35.8164 C   0  0  0  0  0
   23.8977    5.0357  -34.5126 C   0  0  0  0  0
   24.5781    3.7222  -34.1866 C   0  0  0  0  0
   25.9858    3.6940  -34.7442 C   0  0  0  0  0
   26.7196    2.5004  -34.1531 C   0  0  0  0  0
   28.1897    2.5468  -34.5375 C   0  0  0  0  0
   29.0102    1.6888  -33.5846 C   0  0  0  0  0
   29.0941    2.3589  -32.2584 C   0  0  0  0  0
   28.0367    2.5723  -29.9759 C   0  0  0  0  0
   26.7423    2.0693  -29.3234 C   0  0  0  0  0
   26.5485    0.5527  -29.3940 C   0  0  0  0  0
   25.1222    0.1937  -29.0005 C   0  0  0  0  0
   24.9260   -0.4162  -26.4910 C   0  0  0  0  0
   24.7380    0.1194  -25.0950 C   0  0  0  0  0
   23.3385    0.6746  -24.8227 C   0  0  0  0  0
   23.1160    0.3625  -23.3453 C   0  0  0  0  0
   23.9380   -0.8741  -23.0588 C   0  0  0  0  0
   26.3313   -1.2591  -23.7184 C   0  0  0  0  0
   26.9485   -0.8505  -22.4074 C   0  0  0  0  0
   29.2817    0.1276  -22.4212 C   0  0  0  0  0
   30.7635   -0.1043  -22.4062 C   0  0  0  0  0
   31.0803   -0.3401  -24.9200 C   0  0  0  0  0
   32.0019   -0.1748  -26.0909 C   0  0  0  0  0
   33.2979   -0.9284  -25.8409 C   0  0  0  0  0
   34.3573    0.1183  -25.5369 C   0  0  0  0  0
   33.8185    1.4231  -26.0878 C   0  0  0  0  0
   31.5444    2.2279  -26.8271 C   0  0  0  0  0
   30.0485    2.1223  -26.6732 C   0  0  0  0  0
   29.1735    2.7597  -29.0119 C   0  0  0  0  0
   29.3872    3.2763  -25.9009 C   0  0  0  0  0
   29.8059    3.2683  -24.4491 C   0  0  0  0  0
   31.4346    0.6113  -21.2202 C   0  0  0  0  0
   31.1694   -0.0542  -19.8595 C   0  0  0  0  0
   31.7792   -1.4169  -19.7140 C   0  0  0  0  0
   32.7784   -1.6146  -18.7572 C   0  0  0  0  0
   33.3785   -2.8669  -18.5810 C   0  0  0  0  0
   32.9633   -3.9440  -19.4025 C   0  0  0  0  0
   31.9544   -3.7417  -20.3568 C   0  0  0  0  0
   31.3607   -2.4913  -20.5103 C   0  0  0  0  0
   26.3515   -1.6000  -21.2170 C   0  0  0  0  0
   26.7001   -3.0886  -21.2517 C   0  0  0  0  0
   25.8489   -3.8547  -20.2958 C   0  0  0  0  0
   21.6597    0.1627  -22.9590 C   0  0  0  0  0
   29.7322    3.4389  -32.1365 O   0  0  0  0  0
   25.1184   -1.6506  -26.6897 O   0  0  0  0  0
   27.0096   -1.9299  -24.5425 O   0  0  0  0  0
   28.8186    1.2976  -22.3871 O   0  0  0  0  0
   30.0721   -1.0856  -25.0381 O   0  0  0  0  0
   32.0555    3.2431  -27.3706 O   0  0  0  0  0
   29.9167    3.7668  -29.1316 O   0  0  0  0  0
   29.6969    4.5152  -26.4644 O   0  0  0  0  0
   35.5425   -0.2272  -26.1831 O   0  0  0  0  0
   33.5232   -5.2055  -19.3072 O   0  0  0  0  0
   34.3657   -2.9426  -17.5867 O   0  0  0  0  0
   36.0749   -4.8051  -18.3118 O   0  0  0  0  0
   34.3406   -5.4137  -16.6736 O   0  0  0  0  0
   36.3035   -3.9151  -15.8903 O   0  0  0  0  0
   29.8036   -0.0788  -19.5597 O   0  0  0  0  0
   32.8131    0.7302  -21.4202 O   0  0  0  0  0
   26.3755   -4.4218  -19.3066 O   0  0  0  0  0
   26.7886   -1.0288  -20.0149 O   0  0  0  0  0
   22.3787    0.0187  -25.6183 O   0  0  0  0  0
   24.8549   -1.1452  -29.2949 O   0  0  0  0  0
   27.4540   -0.1052  -28.5629 O   0  0  0  0  0
   28.4091    1.7871  -31.1449 N   0  0  0  0  0
   24.8707    0.4990  -27.5907 N   0  0  0  0  0
   24.9909   -0.8732  -24.0586 N   0  0  0  0  0
   28.4007   -0.9993  -22.4391 N   0  0  0  0  0
   31.3652    0.3035  -23.6743 N   0  0  0  0  0
   32.3936    1.2130  -26.2845 N   0  0  0  0  0
   29.3594    1.8390  -27.9278 N   0  0  0  0  0
   24.4446   -3.9411  -20.5071 N   0  0  0  0  0
   35.2628   -4.3262  -17.1419 S   0  0  0  0  0
  1  2  1  0  0  0
  2  3  1  0  0  0
  3  4  1  0  0  0
  4  5  1  0  0  0
  5  6  1  0  0  0
  6  7  1  0  0  0
  7  8  1  0  0  0
  8  9  1  0  0  0
  9 10  1  0  0  0
 10 11  1  0  0  0
 11 12  1  0  0  0
 12 13  1  0  0  0
 13 14  1  0  0  0
 14 15  1  0  0  0
 15 16  1  0  0  0
 16 73  1  0  0  0
 17 73  1  0  0  0
 17 18  1  0  0  0
 17 37  1  0  0  0
 18 19  1  0  0  0
 19 20  1  0  0  0
 19 72  1  0  0  0
 20 74  1  0  0  0
 20 71  1  0  0  0
 22 21  1  0  0  0
 22 23  1  0  0  0
 22 75  1  0  0  0
 23 24  1  0  0  0
 23 70  1  0  0  0
 24 25  1  0  0  0
 24 51  1  0  0  0
 25 75  1  0  0  0
 27 26  1  0  0  0
 27 76  1  0  0  0
 27 48  1  0  0  0
 29 28  1  0  0  0
 29 77  1  0  0  0
 29 40  1  0  0  0
 31 30  1  0  0  0
 31 32  1  0  0  0
 31 78  1  0  0  0
 32 33  1  0  0  0
 33 34  1  0  0  0
 33 60  1  0  0  0
 34 78  1  0  0  0
 36 35  1  0  0  0
 36 79  1  0  0  0
 36 38  1  0  0  0
 38 39  1  0  0  0
 38 59  1  0  0  0
 40 41  1  0  0  0
 40 67  1  0  0  0
 41 42  1  0  0  0
 41 66  1  0  0  0
 43 44  1  0  0  0
 44 62  1  0  0  0
 45 46  1  0  0  0
 45 61  1  0  0  0
 47 42  1  0  0  0
 48 49  1  0  0  0
 48 69  1  0  0  0
 49 50  1  0  0  0
 50 80  1  0  0  0
 74 21  1  0  0  0
 75 26  1  0  0  0
 76 28  1  0  0  0
 77 30  1  0  0  0
 78 35  1  0  0  0
 79 37  1  0  0  0
 81 62  1  0  0  0
 81 65  1  0  0  0
 16 52  2  0  0  0
 21 53  2  0  0  0
 26 54  2  0  0  0
 28 55  2  0  0  0
 30 56  2  0  0  0
 35 57  2  0  0  0
 37 58  2  0  0  0
 42 43  2  0  0  0
 44 45  2  0  0  0
 46 47  2  0  0  0
 50 68  2  0  0  0
 81 63  2  0  0  0
 81 64  2  0  0  0
M  END
> <rmsd>
0.789750457

$$$$
MCULE-5190319747 MolPort-005-114-179 PubChem-45227468


 33 36  0  0  0  0  0  0  0  0999 V2000
   23.8221   -4.6614  -28.8386 C   0  0  0  0  0
   24.0399   -2.4201  -27.8488 C   0  0  0  0  0
   23.9837   -1.5525  -26.6147 C   0  0  0  0  0
   22.9445   -0.4318  -26.7397 C   0  0  0  0  0
   23.4476    0.6846  -27.6552 C   0  0  0  0  0
   24.8258    1.1632  -27.2108 C   0  0  0  0  0
   25.7842   -0.0221  -27.1480 C   0  0  0  0  0
   26.2838   -2.0699  -26.0691 C   0  0  0  0  0
   26.3989   -2.5215  -24.6524 C   0  0  0  0  0
   25.3354   -3.1798  -24.0274 C   0  0  0  0  0
   25.4573   -3.6056  -22.7029 C   0  0  0  0  0
   26.6384   -3.3761  -21.9887 C   0  0  0  0  0
   27.1417   -2.9614  -19.5910 C   0  0  0  0  0
   28.6400   -2.7186  -19.6519 C   0  0  0  0  0
   30.2163   -1.1104  -20.4986 C   0  0  0  0  0
   31.3865   -2.0036  -20.1785 C   0  0  0  0  0
   31.8874   -2.0351  -18.8726 C   0  0  0  0  0
   32.9897   -2.8350  -18.5535 C   0  0  0  0  0
   34.5414   -3.6612  -16.7993 C   0  0  0  0  0
   34.0742   -5.0915  -16.6051 C   0  0  0  0  0
   33.6010   -3.5995  -19.5608 C   0  0  0  0  0
   33.1125   -3.5601  -20.8693 C   0  0  0  0  0
   32.0099   -2.7600  -21.1787 C   0  0  0  0  0
   29.0599   -2.6037  -21.9768 C   0  0  0  0  0
   27.7253   -2.7444  -22.6327 C   0  0  0  0  0
   27.5950   -2.3214  -23.9594 C   0  0  0  0  0
   23.7764   -3.7840  -27.7238 O   0  0  0  0  0
   24.3303   -1.9228  -28.9719 O   0  0  0  0  0
   26.6993   -3.7993  -20.6561 O   0  0  0  0  0
   33.4587   -2.8464  -17.2352 O   0  0  0  0  0
   35.1468   -5.8777  -16.1881 O   0  0  0  0  0
   25.2896   -1.0073  -26.1857 N   0  0  0  0  0
   28.9525   -1.8176  -20.7556 N   0  0  0  0  0
  1 27  1  0  0  0
  2 27  1  0  0  0
  3  2  1  0  0  0
  3  4  1  0  0  0
  3 32  1  0  0  0
  4  5  1  0  0  0
  5  6  1  0  0  0
  6  7  1  0  0  0
  7 32  1  0  0  0
  8 32  1  0  0  0
  8  9  1  0  0  0
 10 11  1  0  0  0
 12 29  1  0  0  0
 13 29  1  0  0  0
 13 14  1  0  0  0
 14 33  1  0  0  0
 15 33  1  0  0  0
 15 16  1  0  0  0
 17 18  1  0  0  0
 18 30  1  0  0  0
 19 30  1  0  0  0
 19 20  1  0  0  0
 20 31  1  0  0  0
 21 22  1  0  0  0
 23 16  1  0  0  0
 24 33  1  0  0  0
 24 25  1  0  0  0
 25 12  1  0  0  0
 26  9  1  0  0  0
  2 28  2  0  0  0
  9 10  2  0  0  0
 11 12  2  0  0  0
 16 17  2  0  0  0
 18 21  2  0  0  0
 22 23  2  0  0  0
 25 26  2  0  0  0
M  END
> <rmsd>
0.663452685

$$$$
MCULE-1656634426 PubChem-16129869


 78 88  0  0  0  0  0  0  0  0999 V2000
   31.8379   -6.3282  -22.4217 C   0  0  0  0  0
   30.4352   -5.7542  -22.6020 C   0  0  0  0  0
   29.7903   -6.0431  -23.9654 C   0  0  0  0  0
   29.2240   -7.4703  -24.0207 C   0  0  0  0  0
   28.4219   -7.7886  -22.7506 C   0  0  0  0  0
   29.2723   -7.4328  -21.5328 C   0  0  0  0  0
   26.0012   -7.7775  -22.4886 C   0  0  0  0  0
   25.0645   -8.0472  -23.5823 C   0  0  0  0  0
   24.0380   -7.1337  -23.8326 C   0  0  0  0  0
   23.1180   -7.3692  -24.8559 C   0  0  0  0  0
   23.2180   -8.5265  -25.6368 C   0  0  0  0  0
   24.2458   -9.4475  -25.3968 C   0  0  0  0  0
   25.1768   -9.2153  -24.3690 C   0  0  0  0  0
   26.2969  -10.1642  -24.1565 C   0  0  0  0  0
   26.1228  -11.2797  -23.3176 C   0  0  0  0  0
   27.2000  -12.1367  -23.0552 C   0  0  0  0  0
   28.4532  -11.8816  -23.6238 C   0  0  0  0  0
   28.6308  -10.7772  -24.4587 C   0  0  0  0  0
   27.5631   -9.9180  -24.7316 C   0  0  0  0  0
   27.7776   -8.7696  -25.6254 C   0  0  0  0  0
   28.6319   -4.3885  -25.3950 C   0  0  0  0  0
   27.5641   -3.3738  -25.5780 C   0  0  0  0  0
   27.1029   -3.1417  -26.8804 C   0  0  0  0  0
   26.1023   -2.2051  -27.1350 C   0  0  0  0  0
   25.5462   -1.4727  -26.0846 C   0  0  0  0  0
   26.0008   -1.6714  -24.7768 C   0  0  0  0  0
   27.0115   -2.6176  -24.5082 C   0  0  0  0  0
   27.5061   -2.7674  -23.1166 C   0  0  0  0  0
   26.6694   -3.4007  -22.1727 C   0  0  0  0  0
   27.1556   -3.7409  -20.9064 C   0  0  0  0  0
   28.4941   -3.5114  -20.5856 C   0  0  0  0  0
   29.3289   -2.8567  -21.5057 C   0  0  0  0  0
   28.8375   -2.4205  -22.7522 C   0  0  0  0  0
   29.7343   -1.7033  -23.5865 C   0  0  0  0  0
   31.5236   -2.0836  -22.1291 C   0  0  0  0  0
   32.8950   -1.9986  -21.8829 C   0  0  0  0  0
   33.4463   -2.6322  -20.7643 C   0  0  0  0  0
   32.6211   -3.3229  -19.8523 C   0  0  0  0  0
   33.2733   -4.1741  -18.8300 C   0  0  0  0  0
   33.8146   -3.5597  -17.6826 C   0  0  0  0  0
   34.4219   -4.3316  -16.6869 C   0  0  0  0  0
   34.4932   -5.7191  -16.8255 C   0  0  0  0  0
   33.9658   -6.3356  -17.9593 C   0  0  0  0  0
   33.3580   -5.5883  -18.9782 C   0  0  0  0  0
   32.8223   -6.3329  -20.1509 C   0  0  0  0  0
   31.2091   -3.3069  -20.0288 C   0  0  0  0  0
   30.6867   -2.7270  -21.2024 C   0  0  0  0  0
   30.2820   -3.8867  -19.1234 C   0  0  0  0  0
   29.5778   -6.0586  -21.5179 O   0  0  0  0  0
   28.6045   -7.7758  -20.3574 O   0  0  0  0  0
   27.1839   -7.0886  -22.7398 O   0  0  0  0  0
   25.7649   -8.2314  -21.3368 O   0  0  0  0  0
   27.2670   -8.7949  -26.7761 O   0  0  0  0  0
   28.4571   -7.6159  -25.2187 O   0  0  0  0  0
   29.5262  -12.7247  -23.3648 O   0  0  0  0  0
   27.0257  -13.2386  -22.2253 O   0  0  0  0  0
   24.8848  -11.5323  -22.7335 O   0  0  0  0  0
   24.3443  -10.5883  -26.1869 O   0  0  0  0  0
   22.2993   -8.7607  -26.6545 O   0  0  0  0  0
   22.1051   -6.4487  -25.0925 O   0  0  0  0  0
   28.7481   -5.0955  -24.1944 O   0  0  0  0  0
   29.4148   -4.6458  -26.3517 O   0  0  0  0  0
   29.3428   -1.1625  -24.6553 O   0  0  0  0  0
   31.0146   -1.5756  -23.2468 O   0  0  0  0  0
   32.6915   -7.5872  -20.0814 O   0  0  0  0  0
   32.4675   -5.6678  -21.3286 O   0  0  0  0  0
   35.0890   -6.4922  -15.8374 O   0  0  0  0  0
   34.9518   -3.7181  -15.5563 O   0  0  0  0  0
   33.7399   -2.1783  -17.5247 O   0  0  0  0  0
   30.6545   -4.3436  -18.0101 O   0  0  0  0  0
   28.9896   -3.9583  -19.4356 O   0  0  0  0  0
   34.8261   -2.6054  -20.5793 O   0  0  0  0  0
   33.7212   -1.3230  -22.7754 O   0  0  0  0  0
   26.3184   -4.3634  -19.9872 O   0  0  0  0  0
   25.3586   -3.7324  -22.5061 O   0  0  0  0  0
   25.4572   -0.9125  -23.7450 O   0  0  0  0  0
   24.5491   -0.5370  -26.3417 O   0  0  0  0  0
   25.6660   -2.0038  -28.4381 O   0  0  0  0  0
  1  2  1  0  0  0
  1 66  1  0  0  0
  2  3  1  0  0  0
  2 49  1  0  0  0
  3  4  1  0  0  0
  3 61  1  0  0  0
  4  5  1  0  0  0
  4 54  1  0  0  0
  5  6  1  0  0  0
  5 51  1  0  0  0
  6 49  1  0  0  0
  6 50  1  0  0  0
  7 51  1  0  0  0
  7  8  1  0  0  0
  9 10  1  0  0  0
 10 60  1  0  0  0
 11 12  1  0  0  0
 11 59  1  0  0  0
 12 58  1  0  0  0
 13 14  1  0  0  0
 13  8  1  0  0  0
 15 16  1  0  0  0
 15 57  1  0  0  0
 16 56  1  0  0  0
 17 18  1  0  0  0
 17 55  1  0  0  0
 19 20  1  0  0  0
 19 14  1  0  0  0
 20 54  1  0  0  0
 21 61  1  0  0  0
 21 22  1  0  0  0
 23 24  1  0  0  0
 24 78  1  0  0  0
 25 26  1  0  0  0
 25 77  1  0  0  0
 26 76  1  0  0  0
 27 28  1  0  0  0
 27 22  1  0  0  0
 29 30  1  0  0  0
 29 75  1  0  0  0
 30 74  1  0  0  0
 31 32  1  0  0  0
 31 71  1  0  0  0
 33 34  1  0  0  0
 33 28  1  0  0  0
 34 64  1  0  0  0
 35 64  1  0  0  0
 36 37  1  0  0  0
 36 73  1  0  0  0
 37 72  1  0  0  0
 38 39  1  0  0  0
 38 46  1  0  0  0
 40 41  1  0  0  0
 40 69  1  0  0  0
 41 68  1  0  0  0
 42 43  1  0  0  0
 42 67  1  0  0  0
 44 45  1  0  0  0
 44 39  1  0  0  0
 45 66  1  0  0  0
 46 48  1  0  0  0
 47 35  1  0  0  0
 47 32  1  0  0  0
 48 71  1  0  0  0
  7 52  2  0  0  0
  8  9  2  0  0  0
 10 11  2  0  0  0
 12 13  2  0  0  0
 14 15  2  0  0  0
 16 17  2  0  0  0
 18 19  2  0  0  0
 20 53  2  0  0  0
 21 62  2  0  0  0
 22 23  2  0  0  0
 24 25  2  0  0  0
 26 27  2  0  0  0
 28 29  2  0  0  0
 30 31  2  0  0  0
 32 33  2  0  0  0
 34 63  2  0  0  0
 35 36  2  0  0  0
 37 38  2  0  0  0
 39 40  2  0  0  0
 41 42  2  0  0  0
 43 44  2  0  0  0
 45 65  2  0  0  0
 46 47  2  0  0  0
 48 70  2  0  0  0
M  END
> <rmsd>
0.753471255

$$$$
MCULE-1656634426 PubChem-16129869


 78 88  0  0  0  0  0  0  0  0999 V2000
   29.7325   -6.0469  -23.8558 C   0  0  0  0  0
   30.8475   -5.4077  -23.0324 C   0  0  0  0  0
   31.7968   -6.4029  -22.3495 C   0  0  0  0  0
   32.8322   -6.9535  -23.3422 C   0  0  0  0  0
   33.4411   -5.8200  -24.1802 C   0  0  0  0  0
   32.3071   -4.9798  -24.7643 C   0  0  0  0  0
   35.6049   -4.7481  -23.8680 C   0  0  0  0  0
   36.7640   -5.4165  -23.2714 C   0  0  0  0  0
   37.4270   -4.7980  -22.2091 C   0  0  0  0  0
   38.5455   -5.3996  -21.6293 C   0  0  0  0  0
   39.0113   -6.6278  -22.1126 C   0  0  0  0  0
   38.3516   -7.2588  -23.1752 C   0  0  0  0  0
   37.2235   -6.6591  -23.7622 C   0  0  0  0  0
   36.4943   -7.3584  -24.8484 C   0  0  0  0  0
   36.8919   -7.1846  -26.1863 C   0  0  0  0  0
   36.1601   -7.7836  -27.2204 C   0  0  0  0  0
   35.0286   -8.5524  -26.9242 C   0  0  0  0  0
   34.6310   -8.7297  -25.5979 C   0  0  0  0  0
   35.3553   -8.1414  -24.5578 C   0  0  0  0  0
   34.9194   -8.3567  -23.1695 C   0  0  0  0  0
   32.5393   -6.3050  -19.9911 C   0  0  0  0  0
   33.1916   -5.5683  -18.8797 C   0  0  0  0  0
   33.7764   -6.3220  -17.8537 C   0  0  0  0  0
   34.4084   -5.7046  -16.7755 C   0  0  0  0  0
   34.4604   -4.3116  -16.6994 C   0  0  0  0  0
   33.8688   -3.5347  -17.7009 C   0  0  0  0  0
   33.2285   -4.1493  -18.7967 C   0  0  0  0  0
   32.5671   -3.2959  -19.8156 C   0  0  0  0  0
   33.3806   -2.5649  -20.7075 C   0  0  0  0  0
   32.8181   -1.9022  -21.8030 C   0  0  0  0  0
   31.4505   -2.0088  -22.0588 C   0  0  0  0  0
   30.6266   -2.7097  -21.1633 C   0  0  0  0  0
   31.1561   -3.3073  -20.0022 C   0  0  0  0  0
   30.2371   -3.9313  -19.1186 C   0  0  0  0  0
   28.4594   -3.5991  -20.6018 C   0  0  0  0  0
   27.1269   -3.8483  -20.9351 C   0  0  0  0  0
   26.6366   -3.4712  -22.1897 C   0  0  0  0  0
   27.4661   -2.7979  -23.1109 C   0  0  0  0  0
   26.9787   -2.6409  -24.5011 C   0  0  0  0  0
   26.0493   -1.6187  -24.7812 C   0  0  0  0  0
   25.5798   -1.4275  -26.0847 C   0  0  0  0  0
   26.0328   -2.2506  -27.1176 C   0  0  0  0  0
   26.9477   -3.2679  -26.8497 C   0  0  0  0  0
   27.4307   -3.4896  -25.5521 C   0  0  0  0  0
   28.4058   -4.5983  -25.3615 C   0  0  0  0  0
   28.7868   -2.4291  -22.7303 C   0  0  0  0  0
   29.2800   -2.8866  -21.4918 C   0  0  0  0  0
   29.6714   -1.6700  -23.5405 C   0  0  0  0  0
   31.5369   -4.3951  -23.7412 O   0  0  0  0  0
   32.8195   -3.9812  -25.5922 O   0  0  0  0  0
   34.3245   -5.0252  -23.3987 O   0  0  0  0  0
   35.7659   -3.9763  -24.8514 O   0  0  0  0  0
   35.6123   -9.1003  -22.4262 O   0  0  0  0  0
   33.8113   -7.7033  -22.6186 O   0  0  0  0  0
   34.2964   -9.1457  -27.9445 O   0  0  0  0  0
   36.5547   -7.6103  -28.5423 O   0  0  0  0  0
   38.0056   -6.4078  -26.4924 O   0  0  0  0  0
   38.8147   -8.4856  -23.6398 O   0  0  0  0  0
   40.1271   -7.2248  -21.5353 O   0  0  0  0  0
   39.1910   -4.7715  -20.5719 O   0  0  0  0  0
   32.4582   -5.7451  -21.2695 O   0  0  0  0  0
   32.0933   -7.4686  -19.7874 O   0  0  0  0  0
   30.6047   -4.3715  -17.9965 O   0  0  0  0  0
   28.9554   -4.0527  -19.4552 O   0  0  0  0  0
   28.9576   -5.1187  -26.3715 O   0  0  0  0  0
   28.7161   -5.0764  -24.0847 O   0  0  0  0  0
   25.5758   -2.0619  -28.4155 O   0  0  0  0  0
   24.6644   -0.4151  -26.3538 O   0  0  0  0  0
   25.5979   -0.7822  -23.7638 O   0  0  0  0  0
   29.2832   -1.1461  -24.6184 O   0  0  0  0  0
   30.9392   -1.4945  -23.1732 O   0  0  0  0  0
   25.3286   -3.8007  -22.5353 O   0  0  0  0  0
   26.2983   -4.5138  -20.0374 O   0  0  0  0  0
   33.6330   -1.1851  -22.6719 O   0  0  0  0  0
   34.7615   -2.5287  -20.5306 O   0  0  0  0  0
   33.9036   -2.1477  -17.5954 O   0  0  0  0  0
   35.0900   -3.6979  -15.6211 O   0  0  0  0  0
   34.9815   -6.4830  -15.7782 O   0  0  0  0  0
  1  2  1  0  0  0
  1 66  1  0  0  0
  2  3  1  0  0  0
  2 49  1  0  0  0
  3  4  1  0  0  0
  3 61  1  0  0  0
  4  5  1  0  0  0
  4 54  1  0  0  0
  5  6  1  0  0  0
  5 51  1  0  0  0
  6 49  1  0  0  0
  6 50  1  0  0  0
  7 51  1  0  0  0
  7  8  1  0  0  0
  9 10  1  0  0  0
 10 60  1  0  0  0
 11 12  1  0  0  0
 11 59  1  0  0  0
 12 58  1  0  0  0
 13 14  1  0  0  0
 13  8  1  0  0  0
 15 16  1  0  0  0
 15 57  1  0  0  0
 16 56  1  0  0  0
 17 18  1  0  0  0
 17 55  1  0  0  0
 19 20  1  0  0  0
 19 14  1  0  0  0
 20 54  1  0  0  0
 21 61  1  0  0  0
 21 22  1  0  0  0
 23 24  1  0  0  0
 24 78  1  0  0  0
 25 26  1  0  0  0
 25 77  1  0  0  0
 26 76  1  0  0  0
 27 28  1  0  0  0
 27 22  1  0  0  0
 29 30  1  0  0  0
 29 75  1  0  0  0
 30 74  1  0  0  0
 31 32  1  0  0  0
 31 71  1  0  0  0
 33 34  1  0  0  0
 33 28  1  0  0  0
 34 64  1  0  0  0
 35 64  1  0  0  0
 36 37  1  0  0  0
 36 73  1  0  0  0
 37 72  1  0  0  0
 38 39  1  0  0  0
 38 46  1  0  0  0
 40 41  1  0  0  0
 40 69  1  0  0  0
 41 68  1  0  0  0
 42 43  1  0  0  0
 42 67  1  0  0  0
 44 45  1  0  0  0
 44 39  1  0  0  0
 45 66  1  0  0  0
 46 48  1  0  0  0
 47 35  1  0  0  0
 47 32  1  0  0  0
 48 71  1  0  0  0
  7 52  2  0  0  0
  8  9  2  0  0  0
 10 11  2  0  0  0
 12 13  2  0  0  0
 14 15  2  0  0  0
 16 17  2  0  0  0
 18 19  2  0  0  0
 20 53  2  0  0  0
 21 62  2  0  0  0
 22 23  2  0  0  0
 24 25  2  0  0  0
 26 27  2  0  0  0
 28 29  2  0  0  0
 30 31  2  0  0  0
 32 33  2  0  0  0
 34 63  2  0  0  0
 35 36  2  0  0  0
 37 38  2  0  0  0
 39 40  2  0  0  0
 41 42  2  0  0  0
 43 44  2  0  0  0
 45 65  2  0  0  0
 46 47  2  0  0  0
 48 70  2  0  0  0
M  END
> <rmsd>
0.733665466

$$$$
MCULE-7411460578 CSC028172818 LN01403923 MolPort-002-457-697 PubChem-3507062


 37 40  0  0  0  0  0  0  0  0999 V2000
   35.1853   -6.2923  -19.2357 C   0  0  0  0  0
   35.6314   -4.9825  -18.6180 C   0  0  0  0  0
   32.6234   -3.3626  -19.3256 C   0  0  0  0  0
   33.6362   -2.5458  -19.8477 C   0  0  0  0  0
   33.3685   -1.6913  -20.9199 C   0  0  0  0  0
   32.0872   -1.6484  -21.4754 C   0  0  0  0  0
   31.0653   -2.4590  -20.9624 C   0  0  0  0  0
   31.3431   -3.3145  -19.8859 C   0  0  0  0  0
   29.7160   -2.4127  -21.5502 C   0  0  0  0  0
   27.8409   -1.8741  -22.8819 C   0  0  0  0  0
   29.3226   -1.5318  -22.6972 C   0  0  0  0  0
   27.5849   -2.4216  -24.2533 C   0  0  0  0  0
   28.2373   -3.5761  -24.7115 C   0  0  0  0  0
   27.9504   -4.0879  -25.9791 C   0  0  0  0  0
   27.0071   -3.4534  -26.7914 C   0  0  0  0  0
   26.3470   -2.2989  -26.3440 C   0  0  0  0  0
   26.6459   -1.7879  -25.0732 C   0  0  0  0  0
   25.0523   -3.8254  -22.7590 C   0  0  0  0  0
   24.0652   -2.9483  -23.2207 C   0  0  0  0  0
   23.3341   -3.2592  -24.3703 C   0  0  0  0  0
   23.5881   -4.4506  -25.0697 C   0  0  0  0  0
   21.8837   -3.9428  -26.7884 C   0  0  0  0  0
   24.5721   -5.3267  -24.5996 C   0  0  0  0  0
   25.3032   -5.0154  -23.4498 C   0  0  0  0  0
   34.4119   -4.4101  -17.4534 S   0  0  0  0  0
   26.0237   -3.4040  -21.3597 S   0  0  0  0  0
   34.8318   -3.0835  -16.8864 O   0  0  0  0  0
   34.2943   -5.4051  -16.3335 O   0  0  0  0  0
   24.7063   -0.5352  -26.7138 O   0  0  0  0  0
   25.0802   -2.1150  -28.2922 O   0  0  0  0  0
   26.1526   -4.6119  -20.4744 O   0  0  0  0  0
   25.3594   -2.3012  -20.5839 O   0  0  0  0  0
   22.8836   -4.7840  -26.2295 O   0  0  0  0  0
   32.8707   -4.2486  -18.2307 N   0  0  0  0  0
   28.7403   -3.1322  -21.1132 N   0  0  0  0  0
   27.5960   -2.8844  -21.8654 N   0  0  0  0  0
   25.3648   -1.6555  -27.1666 N   0  0  0  0  0
  1  2  1  0  0  0
  2 25  1  0  0  0
  4  5  1  0  0  0
  6  7  1  0  0  0
  7  9  1  0  0  0
  8  3  1  0  0  0
 10 36  1  0  0  0
 10 11  1  0  0  0
 10 12  1  0  0  0
 11  9  1  0  0  0
 13 14  1  0  0  0
 15 16  1  0  0  0
 16 37  1  0  0  0
 17 12  1  0  0  0
 19 20  1  0  0  0
 21 33  1  0  0  0
 21 23  1  0  0  0
 22 33  1  0  0  0
 24 18  1  0  0  0
 25 34  1  0  0  0
 26 36  1  0  0  0
 26 18  1  0  0  0
 34  3  1  0  0  0
 36 35  1  0  0  0
 37 29  1  0  0  0
  3  4  2  0  0  0
  5  6  2  0  0  0
  7  8  2  0  0  0
  9 35  2  0  0  0
 12 13  2  0  0  0
 14 15  2  0  0  0
 16 17  2  0  0  0
 18 19  2  0  0  0
 20 21  2  0  0  0
 23 24  2  0  0  0
 25 27  2  0  0  0
 25 28  2  0  0  0
 26 31  2  0  0  0
 26 32  2  0  0  0
 37 30  2  0  0  0
M  CHG  2  37   1  29  -1
M  END
> <rmsd>
0.646873593

$$$$
MCULE-4094927346 MolPort-047-400-883


 58 60  0  0  0  0  0  0  0  0999 V2000
   26.3400   -0.9022  -28.7212 C   0  0  0  0  0
   26.8207   -0.1573  -27.6306 C   0  0  0  0  0
   27.7356    0.8794  -27.8310 C   0  0  0  0  0
   28.1848    1.1889  -29.1250 C   0  0  0  0  0
   27.7085    0.4419  -30.2107 C   0  0  0  0  0
   26.7950   -0.5966  -30.0086 C   0  0  0  0  0
   24.7034   -2.2500  -27.4043 C   0  0  0  0  0
   23.2524   -3.8500  -26.1908 C   0  0  0  0  0
   24.1566   -4.2475  -25.0722 C   0  0  0  0  0
   24.2595   -3.4364  -23.9383 C   0  0  0  0  0
   25.1222   -3.7938  -22.8990 C   0  0  0  0  0
   25.8893   -4.9655  -22.9848 C   0  0  0  0  0
   26.9909   -4.6922  -20.6904 C   0  0  0  0  0
   28.0850   -5.1570  -19.7895 C   0  0  0  0  0
   27.5161   -5.8955  -18.5898 C   0  0  0  0  0
   27.4529   -7.3948  -18.8556 C   0  0  0  0  0
   28.8498   -7.9903  -18.9827 C   0  0  0  0  0
   30.9240   -8.2946  -17.5812 C   0  0  0  0  0
   30.2955   -4.0086  -19.4463 C   0  0  0  0  0
   31.0628   -2.8903  -18.8012 C   0  0  0  0  0
   31.6485   -1.8911  -19.8059 C   0  0  0  0  0
   30.5519   -1.1733  -20.5715 C   0  0  0  0  0
   32.6333   -2.5299  -20.7734 C   0  0  0  0  0
   31.8519   -4.2194  -16.7788 C   0  0  0  0  0
   32.9669   -4.6305  -15.8687 C   0  0  0  0  0
   32.9876   -3.7474  -14.6259 C   0  0  0  0  0
   35.0529   -3.3394  -13.2490 C   0  0  0  0  0
   37.1087   -3.0756  -11.8450 C   0  0  0  0  0
   37.9962   -2.5354  -12.9533 C   0  0  0  0  0
   36.5757   -1.9290  -11.0045 C   0  0  0  0  0
   37.9421   -3.9699  -10.9540 C   0  0  0  0  0
   35.1049   -5.7397  -16.7795 C   0  0  0  0  0
   36.4065   -5.3197  -17.2966 C   0  0  0  0  0
   36.3923   -3.9859  -17.3842 C   0  0  0  0  0
   35.0813   -3.5280  -16.9249 C   0  0  0  0  0
   25.7834   -5.7719  -24.1239 C   0  0  0  0  0
   24.9201   -5.4159  -25.1643 C   0  0  0  0  0
   29.1351    2.2412  -29.3352 N   0  0  0  0  0
   26.8029   -5.3498  -21.9490 N   0  0  0  0  0
   29.5661   -7.8766  -17.7189 N   0  0  0  0  0
   31.5792   -8.1567  -16.3270 N   0  0  0  0  0
   28.8741   -4.0272  -19.3301 N   0  0  0  0  0
   32.1109   -3.4060  -17.9270 N   0  0  0  0  0
   34.0106   -4.2031  -13.6973 N   0  0  0  0  0
   34.2599   -4.6251  -16.5555 N   0  0  0  0  0
   29.5789    2.5317  -30.6045 O   0  0  0  0  0
   29.5878    2.8902  -28.3690 O   0  0  0  0  0
   25.4341   -1.9611  -28.5649 O   0  0  0  0  0
   24.6426   -1.4253  -26.4508 O   0  0  0  0  0
   24.0083   -3.4600  -27.3333 O   0  0  0  0  0
   26.2362   -3.7481  -20.3299 O   0  0  0  0  0
   31.5464   -8.7830  -18.5619 O   0  0  0  0  0
   30.9002   -4.9324  -20.0562 O   0  0  0  0  0
   30.6742   -4.5655  -16.5000 O   0  0  0  0  0
   36.0353   -3.8448  -12.3883 O   0  0  0  0  0
   35.0807   -2.1349  -13.6232 O   0  0  0  0  0
   34.7728   -6.9297  -16.5356 O   0  0  0  0  0
   34.7267   -2.3225  -16.8438 O   0  0  0  0  0
  1 48  1  0  0  0
  2  3  1  0  0  0
  4 38  1  0  0  0
  4  5  1  0  0  0
  6  1  1  0  0  0
  7 48  1  0  0  0
  7 50  1  0  0  0
  8 50  1  0  0  0
  8  9  1  0  0  0
 10 11  1  0  0  0
 12 39  1  0  0  0
 12 36  1  0  0  0
 14 13  1  0  0  0
 14 15  1  0  0  0
 14 42  1  0  0  0
 15 16  1  0  0  0
 16 17  1  0  0  0
 17 40  1  0  0  0
 18 41  1  0  0  0
 20 19  1  0  0  0
 20 21  1  0  0  0
 20 43  1  0  0  0
 21 22  1  0  0  0
 21 23  1  0  0  0
 25 24  1  0  0  0
 25 26  1  0  0  0
 25 45  1  0  0  0
 26 44  1  0  0  0
 27 55  1  0  0  0
 28 55  1  0  0  0
 28 29  1  0  0  0
 28 30  1  0  0  0
 28 31  1  0  0  0
 32 33  1  0  0  0
 34 35  1  0  0  0
 35 45  1  0  0  0
 37  9  1  0  0  0
 38 46  1  0  0  0
 39 13  1  0  0  0
 40 18  1  0  0  0
 42 19  1  0  0  0
 43 24  1  0  0  0
 44 27  1  0  0  0
 45 32  1  0  0  0
  1  2  2  0  0  0
  3  4  2  0  0  0
  5  6  2  0  0  0
  7 49  2  0  0  0
  9 10  2  0  0  0
 11 12  2  0  0  0
 13 51  2  0  0  0
 18 52  2  0  0  0
 19 53  2  0  0  0
 24 54  2  0  0  0
 27 56  2  0  0  0
 32 57  2  0  0  0
 33 34  2  0  0  0
 35 58  2  0  0  0
 36 37  2  0  0  0
 38 47  2  0  0  0
M  CHG  2  38   1  46  -1
M  END
> <rmsd>
0.716723263

$$$$
MCULE-2008603251 CHEMBL110309 MolPort-003-946-601 PubChem-3879


 69 77  0  0  0  0  0  0  0  0999 V2000
   24.2071   -2.0175  -24.2225 C   0  0  0  0  0
   25.5729   -2.0560  -24.9197 C   0  0  0  0  0
   24.7678   -2.2404  -27.0775 C   0  0  0  0  0
   25.4636   -3.5835  -27.3393 C   0  0  0  0  0
   25.5673   -4.3504  -26.0256 C   0  0  0  0  0
   26.2172   -3.4555  -24.9559 C   0  0  0  0  0
   27.1692   -5.0501  -23.6373 C   0  0  0  0  0
   27.0256   -5.8927  -22.3632 C   0  0  0  0  0
   27.4910   -5.1155  -21.1310 C   0  0  0  0  0
   28.8633   -4.4706  -21.3946 C   0  0  0  0  0
   29.6255   -4.4494  -19.2564 C   0  0  0  0  0
   29.5466   -3.6993  -17.9249 C   0  0  0  0  0
   30.6986   -2.7080  -17.7822 C   0  0  0  0  0
   30.3859   -0.3006  -18.1955 C   0  0  0  0  0
   30.2362    0.8129  -19.1688 C   0  0  0  0  0
   32.0301   -3.3971  -18.0610 C   0  0  0  0  0
   33.7644   -4.3293  -17.0030 C   0  0  0  0  0
   35.4726   -5.8588  -17.1599 C   0  0  0  0  0
   35.5498   -6.2645  -18.6285 C   0  0  0  0  0
   36.4531   -4.7233  -16.7414 C   0  0  0  0  0
   35.8417   -3.8581  -15.6303 C   0  0  0  0  0
   34.4186   -3.3930  -15.9750 C   0  0  0  0  0
   31.9751   -4.2166  -19.3632 C   0  0  0  0  0
   32.1793   -3.3688  -20.6077 C   0  0  0  0  0
   28.7858   -3.6831  -22.7100 C   0  0  0  0  0
   30.0958   -2.9773  -23.0074 C   0  0  0  0  0
   23.4600   -2.1051  -28.9286 C   0  0  0  0  0
   22.1318   -1.7597  -28.2430 C   0  0  0  0  0
   21.7293   -0.3104  -28.4850 C   0  0  0  0  0
   21.7123    0.0999  -29.9731 C   0  0  0  0  0
   22.6759    1.2689  -30.1092 C   0  0  0  0  0
   22.2258   -1.0201  -30.9211 C   0  0  0  0  0
   21.1768   -2.0769  -31.2321 C   0  0  0  0  0
   19.9930   -1.4305  -31.9257 C   0  0  0  0  0
   19.3191   -0.3972  -31.0216 C   0  0  0  0  0
   20.3147    0.6276  -30.4076 C   0  0  0  0  0
   19.6542    1.6129  -29.4060 C   0  0  0  0  0
   18.6597    0.9373  -28.4371 C   0  0  0  0  0
   17.6346    0.1030  -29.2302 C   0  0  0  0  0
   16.8862    0.9990  -30.2449 C   0  0  0  0  0
   16.6373   -0.7341  -28.4100 C   0  0  0  0  0
   16.2296   -1.8789  -29.3508 C   0  0  0  0  0
   17.2998   -1.9328  -30.4505 C   0  0  0  0  0
   18.4016   -1.0083  -29.9499 C   0  0  0  0  0
   15.4350   -0.0706  -27.7784 C   0  0  0  0  0
   15.1102    1.2194  -27.8721 C   0  0  0  0  0
   13.8898    1.3599  -27.1071 C   0  0  0  0  0
   14.4557   -0.8336  -26.9248 C   0  0  0  0  0
   23.5026   -1.6965  -30.4079 C   0  0  0  0  0
   25.5433   -1.4502  -26.1976 O   0  0  0  0  0
   24.2998   -4.7744  -25.6181 O   0  0  0  0  0
   26.1948   -4.0339  -23.6735 O   0  0  0  0  0
   26.5432   -4.1463  -20.7856 O   0  0  0  0  0
   29.2565   -3.6269  -20.3372 O   0  0  0  0  0
   30.5192   -1.6053  -18.6640 O   0  0  0  0  0
   30.3978   -0.0536  -16.9604 O   0  0  0  0  0
   32.3705   -4.2103  -16.9702 O   0  0  0  0  0
   34.1307   -5.6655  -16.7455 O   0  0  0  0  0
   36.8085   -6.7951  -18.9142 O   0  0  0  0  0
   36.7815   -3.9037  -17.8293 O   0  0  0  0  0
   35.8229   -4.5730  -14.4303 O   0  0  0  0  0
   34.4679   -2.0947  -16.4988 O   0  0  0  0  0
   30.8708   -5.1040  -19.4624 O   0  0  0  0  0
   28.4872   -4.5499  -23.7820 O   0  0  0  0  0
   24.5590   -1.5282  -28.2699 O   0  0  0  0  0
   18.0302    1.9144  -27.6635 O   0  0  0  0  0
   19.1779   -1.7380  -29.0366 O   0  0  0  0  0
   13.2412    2.4305  -26.9691 O   0  0  0  0  0
   13.5033    0.1543  -26.5576 O   0  0  0  0  0
  1  2  1  0  0  0
  2 50  1  0  0  0
  3 50  1  0  0  0
  3  4  1  0  0  0
  3 65  1  0  0  0
  4  5  1  0  0  0
  5 51  1  0  0  0
  5  6  1  0  0  0
  6 52  1  0  0  0
  6  2  1  0  0  0
  7 52  1  0  0  0
  7  8  1  0  0  0
  7 64  1  0  0  0
  8  9  1  0  0  0
  9 53  1  0  0  0
  9 10  1  0  0  0
 10 54  1  0  0  0
 10 25  1  0  0  0
 11 54  1  0  0  0
 11 12  1  0  0  0
 11 63  1  0  0  0
 12 13  1  0  0  0
 13 55  1  0  0  0
 13 16  1  0  0  0
 14 55  1  0  0  0
 15 14  1  0  0  0
 16 57  1  0  0  0
 16 23  1  0  0  0
 17 57  1  0  0  0
 17 58  1  0  0  0
 18 58  1  0  0  0
 18 19  1  0  0  0
 18 20  1  0  0  0
 19 59  1  0  0  0
 20 60  1  0  0  0
 20 21  1  0  0  0
 21 61  1  0  0  0
 21 22  1  0  0  0
 22 62  1  0  0  0
 22 17  1  0  0  0
 23 24  1  0  0  0
 23 63  1  0  0  0
 25 26  1  0  0  0
 25 64  1  0  0  0
 27 65  1  0  0  0
 27 28  1  0  0  0
 28 29  1  0  0  0
 29 30  1  0  0  0
 30 31  1  0  0  0
 30 32  1  0  0  0
 32 33  1  0  0  0
 32 49  1  0  0  0
 33 34  1  0  0  0
 34 35  1  0  0  0
 35 36  1  0  0  0
 36 37  1  0  0  0
 36 30  1  0  0  0
 37 38  1  0  0  0
 38 66  1  0  0  0
 38 39  1  0  0  0
 39 40  1  0  0  0
 39 41  1  0  0  0
 41 42  1  0  0  0
 41 45  1  0  0  0
 42 43  1  0  0  0
 43 44  1  0  0  0
 44 67  1  0  0  0
 44 39  1  0  0  0
 44 35  1  0  0  0
 46 47  1  0  0  0
 47 69  1  0  0  0
 48 69  1  0  0  0
 48 45  1  0  0  0
 49 27  1  0  0  0
 14 56  2  0  0  0
 45 46  2  0  0  0
 47 68  2  0  0  0
M  END
> <rmsd>
0.793629944

$$$$
MCULE-1513819602 MolPort-046-627-164 PubChem-137918162


 67 73  0  0  0  0  0  0  0  0999 V2000
   36.1921   -7.3287  -17.9990 C   0  0  0  0  0
   35.7228   -7.1477  -16.5649 C   0  0  0  0  0
   34.6518   -5.6902  -15.1586 C   0  0  0  0  0
   34.9745   -3.6289  -14.3723 C   0  0  0  0  0
   35.5535   -3.3395  -12.9812 C   0  0  0  0  0
   36.9206   -2.6491  -13.0690 C   0  0  0  0  0
   36.8758   -1.5286  -14.1262 C   0  0  0  0  0
   38.2145   -0.8236  -14.2484 C   0  0  0  0  0
   35.1347   -2.3851  -15.2595 C   0  0  0  0  0
   33.3231   -1.9986  -16.4850 C   0  0  0  0  0
   32.2291   -3.0694  -16.4213 C   0  0  0  0  0
   32.2179   -3.8749  -17.7100 C   0  0  0  0  0
   31.8481   -2.9631  -18.8806 C   0  0  0  0  0
   32.7720   -1.7474  -18.9557 C   0  0  0  0  0
   33.0584   -1.1723  -20.1444 C   0  0  0  0  0
   32.6631   -1.7498  -21.4763 C   0  0  0  0  0
   31.4591   -2.6988  -21.3547 C   0  0  0  0  0
   30.0535   -2.0084  -21.4254 C   0  0  0  0  0
   30.0547   -0.6330  -20.7453 C   0  0  0  0  0
   29.7455   -1.7594  -22.9002 C   0  0  0  0  0
   28.3001   -2.1443  -23.1629 C   0  0  0  0  0
   27.7118   -2.5600  -21.8261 C   0  0  0  0  0
   26.5089   -3.5373  -21.9183 C   0  0  0  0  0
   26.8059   -4.7029  -22.8509 C   0  0  0  0  0
   25.2828   -2.8068  -22.4624 C   0  0  0  0  0
   24.8679   -1.6408  -21.5654 C   0  0  0  0  0
   23.6402   -0.8920  -22.0950 C   0  0  0  0  0
   23.8539   -0.1698  -23.4377 C   0  0  0  0  0
   25.1084    0.7027  -23.3457 C   0  0  0  0  0
   22.6499    0.7446  -23.6545 C   0  0  0  0  0
   24.1542   -0.5266  -25.7224 C   0  0  0  0  0
   25.1140   -2.4148  -26.6181 C   0  0  0  0  0
   26.4200   -3.0548  -27.0635 C   0  0  0  0  0
   24.0224   -2.6359  -27.6686 C   0  0  0  0  0
   22.7072   -2.0430  -27.1656 C   0  0  0  0  0
   22.8947   -0.6318  -26.5977 C   0  0  0  0  0
   28.8825   -2.9021  -20.9013 C   0  0  0  0  0
   28.4747   -2.5797  -19.4575 C   0  0  0  0  0
   29.2611   -4.3873  -20.9900 C   0  0  0  0  0
   30.4659   -4.6527  -20.1445 C   0  0  0  0  0
   31.6643   -3.7262  -20.2177 C   0  0  0  0  0
   32.9039   -4.5623  -20.5381 C   0  0  0  0  0
   33.1259   -1.0174  -17.6647 C   0  0  0  0  0
   34.3916   -0.1799  -17.8296 C   0  0  0  0  0
   31.9960   -0.0652  -17.3188 C   0  0  0  0  0
   34.6781   -6.8052  -14.0743 C   0  0  0  0  0
   34.3634   -8.1683  -14.6999 C   0  0  0  0  0
   35.2429   -8.4609  -15.9206 C   0  0  0  0  0
   34.7126   -6.1702  -16.4931 O   0  0  0  0  0
   35.6407   -4.7196  -14.9427 O   0  0  0  0  0
   34.6675   -2.5385  -12.2601 O   0  0  0  0  0
   37.9036   -3.5892  -13.3898 O   0  0  0  0  0
   38.4714   -0.0825  -13.0949 O   0  0  0  0  0
   36.4923   -2.0454  -15.3774 O   0  0  0  0  0
   34.5863   -2.6115  -16.5257 O   0  0  0  0  0
   26.2030   -4.0510  -20.6549 O   0  0  0  0  0
   22.5359   -1.7488  -22.1493 O   0  0  0  0  0
   23.9605   -1.1441  -24.4655 O   0  0  0  0  0
   25.3021   -1.0361  -26.3766 O   0  0  0  0  0
   27.3401   -3.0353  -26.0142 O   0  0  0  0  0
   24.3782   -2.0413  -28.8835 O   0  0  0  0  0
   22.1517   -2.8737  -26.1911 O   0  0  0  0  0
   22.9713    0.2917  -27.6403 O   0  0  0  0  0
   30.4374   -5.5825  -19.3542 O   0  0  0  0  0
   35.9222   -6.8475  -13.4350 O   0  0  0  0  0
   34.4900   -9.1898  -13.7552 O   0  0  0  0  0
   34.5057   -9.2260  -16.8264 O   0  0  0  0  0
  1  2  1  0  0  0
  2 49  1  0  0  0
  3 49  1  0  0  0
  3 50  1  0  0  0
  3 46  1  0  0  0
  4 50  1  0  0  0
  4  5  1  0  0  0
  5 51  1  0  0  0
  5  6  1  0  0  0
  6 52  1  0  0  0
  6  7  1  0  0  0
  7  8  1  0  0  0
  7 54  1  0  0  0
  8 53  1  0  0  0
  9 54  1  0  0  0
  9 55  1  0  0  0
  9  4  1  0  0  0
 10 55  1  0  0  0
 10 11  1  0  0  0
 11 12  1  0  0  0
 12 13  1  0  0  0
 13 14  1  0  0  0
 16 15  1  0  0  0
 16 17  1  0  0  0
 17 18  1  0  0  0
 18 19  1  0  0  0
 18 20  1  0  0  0
 20 21  1  0  0  0
 21 22  1  0  0  0
 22 23  1  0  0  0
 22 37  1  0  0  0
 23 24  1  0  0  0
 23 56  1  0  0  0
 23 25  1  0  0  0
 25 26  1  0  0  0
 26 27  1  0  0  0
 27 57  1  0  0  0
 27 28  1  0  0  0
 28 29  1  0  0  0
 28 30  1  0  0  0
 28 58  1  0  0  0
 31 58  1  0  0  0
 31 59  1  0  0  0
 32 59  1  0  0  0
 32 33  1  0  0  0
 32 34  1  0  0  0
 33 60  1  0  0  0
 34 61  1  0  0  0
 34 35  1  0  0  0
 35 62  1  0  0  0
 35 36  1  0  0  0
 36 63  1  0  0  0
 36 31  1  0  0  0
 37 38  1  0  0  0
 37 39  1  0  0  0
 37 18  1  0  0  0
 39 40  1  0  0  0
 41 40  1  0  0  0
 41 42  1  0  0  0
 41 13  1  0  0  0
 41 17  1  0  0  0
 43 14  1  0  0  0
 43 44  1  0  0  0
 43 45  1  0  0  0
 43 10  1  0  0  0
 46 65  1  0  0  0
 46 47  1  0  0  0
 47 66  1  0  0  0
 47 48  1  0  0  0
 48 67  1  0  0  0
 48  2  1  0  0  0
 14 15  2  0  0  0
 40 64  2  0  0  0
M  END
> <rmsd>
0.435507298

$$$$
MCULE-7806844578


 49 52  0  0  0  0  0  0  0  0999 V2000
   27.6927   -4.3919  -21.4273 C   0  0  0  0  0
   28.0194   -5.4019  -20.5109 C   0  0  0  0  0
   29.2286   -6.0932  -20.6033 C   0  0  0  0  0
   30.1332   -5.7753  -21.6164 C   0  0  0  0  0
   29.8238   -4.7755  -22.5372 C   0  0  0  0  0
   28.6126   -4.0710  -22.4565 C   0  0  0  0  0
   29.1904   -2.4772  -24.3785 C   0  0  0  0  0
   28.6617   -1.6671  -25.5136 C   0  0  0  0  0
   26.0737   -1.4425  -25.6281 C   0  0  0  0  0
   24.4761   -3.1688  -25.3860 C   0  0  0  0  0
   23.8692   -4.2490  -24.5550 C   0  0  0  0  0
   24.5022   -5.5979  -24.8627 C   0  0  0  0  0
   25.8851   -5.6969  -24.2466 C   0  0  0  0  0
   24.0378   -2.9578  -26.6931 C   0  0  0  0  0
   24.6514   -1.9554  -27.4441 C   0  0  0  0  0
   29.5692   -7.1378  -19.5933 C   0  0  0  0  0
   30.4230   -6.5624  -18.5140 C   0  0  0  0  0
   29.8374   -6.0032  -17.3788 C   0  0  0  0  0
   30.6394   -5.4229  -16.3962 C   0  0  0  0  0
   32.0366   -5.3961  -16.5300 C   0  0  0  0  0
   32.6332   -5.9655  -17.6810 C   0  0  0  0  0
   34.0991   -5.9820  -17.8989 C   0  0  0  0  0
   31.8107   -6.5374  -18.6627 C   0  0  0  0  0
   32.4179   -4.1902  -14.2940 C   0  0  0  0  0
   33.2539   -3.1776  -13.5742 C   0  0  0  0  0
   34.9386   -2.1820  -15.3199 C   0  0  0  0  0
   34.5401   -1.7668  -17.6142 C   0  0  0  0  0
   34.1476   -2.2771  -18.9570 C   0  0  0  0  0
   32.6489   -2.5114  -19.0030 C   0  0  0  0  0
   32.2760   -3.1379  -20.3290 C   0  0  0  0  0
   34.7803   -0.4064  -17.4196 C   0  0  0  0  0
   35.1142    0.0294  -16.1366 C   0  0  0  0  0
   26.3947   -3.6991  -21.2593 C   0  0  0  0  0
   28.2852   -3.0817  -23.4442 N   0  0  0  0  0
   25.4859   -2.4135  -24.8806 N   0  0  0  0  0
   25.6548   -1.2174  -26.9013 N   0  0  0  0  0
   32.8448   -4.7186  -15.5569 N   0  0  0  0  0
   34.6223   -2.6248  -16.5644 N   0  0  0  0  0
   35.1885   -0.8618  -15.1126 N   0  0  0  0  0
   27.4113   -0.4743  -24.9429 S   0  0  0  0  0
   35.0305   -3.3385  -13.9567 S   0  0  0  0  0
   24.2425   -1.7168  -28.7485 O   0  0  0  0  0
   30.4350   -2.6378  -24.2710 O   0  0  0  0  0
   34.9835   -5.6800  -16.8707 O   0  0  0  0  0
   34.5659   -6.2960  -19.0261 O   0  0  0  0  0
   35.3666    1.3751  -15.9054 O   0  0  0  0  0
   31.3165   -4.5355  -13.7922 O   0  0  0  0  0
   25.4600   -4.1879  -20.3554 O   0  0  0  0  0
   26.1206   -2.6588  -21.9107 O   0  0  0  0  0
  1 33  1  0  0  0
  2  3  1  0  0  0
  4  5  1  0  0  0
  6 34  1  0  0  0
  6  1  1  0  0  0
  8  7  1  0  0  0
  8 40  1  0  0  0
  9 40  1  0  0  0
  9 36  1  0  0  0
 10 35  1  0  0  0
 11 10  1  0  0  0
 11 12  1  0  0  0
 12 13  1  0  0  0
 14 15  1  0  0  0
 15 42  1  0  0  0
 16  3  1  0  0  0
 16 17  1  0  0  0
 18 19  1  0  0  0
 20 21  1  0  0  0
 20 37  1  0  0  0
 21 22  1  0  0  0
 22 44  1  0  0  0
 23 17  1  0  0  0
 25 24  1  0  0  0
 25 41  1  0  0  0
 26 41  1  0  0  0
 26 39  1  0  0  0
 27 38  1  0  0  0
 28 27  1  0  0  0
 28 29  1  0  0  0
 29 30  1  0  0  0
 31 32  1  0  0  0
 32 46  1  0  0  0
 33 48  1  0  0  0
 34  7  1  0  0  0
 37 24  1  0  0  0
  1  2  2  0  0  0
  3  4  2  0  0  0
  5  6  2  0  0  0
  7 43  2  0  0  0
  9 35  2  0  0  0
 10 14  2  0  0  0
 15 36  2  0  0  0
 17 18  2  0  0  0
 19 20  2  0  0  0
 21 23  2  0  0  0
 22 45  2  0  0  0
 24 47  2  0  0  0
 26 38  2  0  0  0
 27 31  2  0  0  0
 32 39  2  0  0  0
 33 49  2  0  0  0
M  END
> <rmsd>
0.793513536

$$$$
MCULE-6067031023 PubChem-166727


 45 48  0  0  0  0  0  0  0  0999 V2000
   27.8779   -1.4525  -21.0065 C   0  0  0  0  0
   27.2731   -2.5565  -21.8783 C   0  0  0  0  0
   26.9014   -1.9965  -23.2597 C   0  0  0  0  0
   28.1345   -1.3939  -23.9497 C   0  0  0  0  0
   28.7813   -0.3228  -23.0638 C   0  0  0  0  0
   29.1171   -0.8381  -21.6579 C   0  0  0  0  0
   31.1692   -1.4315  -20.6781 C   0  0  0  0  0
   31.7265   -2.6677  -20.0274 C   0  0  0  0  0
   32.6694   -3.3864  -20.6501 C   0  0  0  0  0
   33.1567   -2.9271  -22.0026 C   0  0  0  0  0
   33.4038   -1.4118  -22.0012 C   0  0  0  0  0
   32.2916   -0.5905  -21.3142 C   0  0  0  0  0
   33.2143   -4.6184  -19.9963 C   0  0  0  0  0
   33.3523   -4.9746  -17.8109 C   0  0  0  0  0
   32.7861   -4.0273  -16.7158 C   0  0  0  0  0
   32.9882   -4.6175  -15.3173 C   0  0  0  0  0
   34.4502   -5.0621  -15.1001 C   0  0  0  0  0
   35.1361   -5.3995  -16.4379 C   0  0  0  0  0
   36.3663   -6.2789  -16.2691 C   0  0  0  0  0
   25.2289   -2.4846  -24.7658 C   0  0  0  0  0
   24.0230   -2.2246  -23.8475 C   0  0  0  0  0
   22.8338   -1.7592  -24.6828 C   0  0  0  0  0
   23.2504   -0.6296  -25.6199 C   0  0  0  0  0
   24.5127   -1.0122  -26.4063 C   0  0  0  0  0
   24.2689   -2.0796  -27.4764 C   0  0  0  0  0
   26.0508   -3.1305  -21.1822 C   0  0  0  0  0
   30.2017   -1.8111  -21.6969 N   0  0  0  0  0
   32.8596    0.2413  -20.3494 O   0  0  0  0  0
   33.5767   -0.9587  -23.3089 O   0  0  0  0  0
   34.3241   -3.5990  -22.3726 O   0  0  0  0  0
   33.9533   -4.2712  -18.8624 O   0  0  0  0  0
   34.2165   -5.9887  -17.3246 O   0  0  0  0  0
   37.0423   -6.3852  -17.4850 O   0  0  0  0  0
   34.5133   -6.1319  -14.1998 O   0  0  0  0  0
   32.1058   -5.6872  -15.1393 O   0  0  0  0  0
   33.3868   -2.7667  -16.7805 O   0  0  0  0  0
   29.9134    0.2127  -23.6806 O   0  0  0  0  0
   29.0553   -2.3926  -24.2820 O   0  0  0  0  0
   26.3447   -3.0074  -24.0700 O   0  0  0  0  0
   25.5790   -1.3470  -25.5381 O   0  0  0  0  0
   25.3992   -2.2073  -28.2833 O   0  0  0  0  0
   22.2065   -0.3083  -26.4904 O   0  0  0  0  0
   21.8123   -1.3181  -23.8400 O   0  0  0  0  0
   23.6797   -3.4007  -23.1802 O   0  0  0  0  0
   26.4409   -3.8702  -20.0660 O   0  0  0  0  0
  1  2  1  0  0  0
  2  3  1  0  0  0
  2 26  1  0  0  0
  3  4  1  0  0  0
  3 39  1  0  0  0
  4  5  1  0  0  0
  4 38  1  0  0  0
  5  6  1  0  0  0
  5 37  1  0  0  0
  6 27  1  0  0  0
  6  1  1  0  0  0
  7 27  1  0  0  0
  7  8  1  0  0  0
 10  9  1  0  0  0
 10 11  1  0  0  0
 10 30  1  0  0  0
 11 12  1  0  0  0
 11 29  1  0  0  0
 12 28  1  0  0  0
 12  7  1  0  0  0
 13  9  1  0  0  0
 13 31  1  0  0  0
 14 31  1  0  0  0
 14 15  1  0  0  0
 14 32  1  0  0  0
 15 16  1  0  0  0
 15 36  1  0  0  0
 16 17  1  0  0  0
 16 35  1  0  0  0
 17 18  1  0  0  0
 17 34  1  0  0  0
 18 32  1  0  0  0
 18 19  1  0  0  0
 19 33  1  0  0  0
 20 39  1  0  0  0
 20 21  1  0  0  0
 20 40  1  0  0  0
 21 22  1  0  0  0
 21 44  1  0  0  0
 22 23  1  0  0  0
 22 43  1  0  0  0
 23 24  1  0  0  0
 23 42  1  0  0  0
 24 40  1  0  0  0
 24 25  1  0  0  0
 25 41  1  0  0  0
 26 45  1  0  0  0
  8  9  2  0  0  0
M  END
> <rmsd>
0.87095809

$$$$
MCULE-4141384040 MCULE-8512480834 CHEMBL1200645 MolPort-016-638-412 PubChem-122638977 PubChem-6918092 ZINC000003920020


 46 52  0  0  0  0  0  0  0  0999 V2000
   31.5686   -0.8213  -16.9209 C   0  0  0  0  0
   31.8332   -2.5126  -18.7171 C   0  0  0  0  0
   31.0415   -1.7394  -19.5804 C   0  0  0  0  0
   30.7461   -2.1726  -20.8681 C   0  0  0  0  0
   31.2365   -3.4021  -21.3063 C   0  0  0  0  0
   32.0321   -4.1988  -20.4820 C   0  0  0  0  0
   33.3649   -6.3258  -20.4085 C   0  0  0  0  0
   32.3465   -3.7630  -19.1646 C   0  0  0  0  0
   29.8632   -1.3273  -21.7442 C   0  0  0  0  0
   30.5403   -1.0413  -23.0833 C   0  0  0  0  0
   29.5651   -0.2538  -23.9185 C   0  0  0  0  0
   30.4066    0.5692  -24.8891 C   0  0  0  0  0
   31.7003   -0.1256  -23.1118 C   0  0  0  0  0
   28.4706   -1.1669  -24.4478 C   0  0  0  0  0
   27.5336   -0.7859  -26.4309 C   0  0  0  0  0
   28.4518   -0.3973  -28.4512 C   0  0  0  0  0
   29.4211    0.4458  -29.2722 C   0  0  0  0  0
   28.1798    0.0870  -31.1326 C   0  0  0  0  0
   28.2250   -0.1578  -32.6274 C   0  0  0  0  0
   27.1216   -0.3993  -29.2094 C   0  0  0  0  0
   26.1377   -1.2930  -28.4622 C   0  0  0  0  0
   26.1003   -0.9113  -26.9780 C   0  0  0  0  0
   27.8530   -1.9156  -23.2732 C   0  0  0  0  0
   28.5002   -1.9790  -21.9839 C   0  0  0  0  0
   27.8501   -2.6307  -20.9131 C   0  0  0  0  0
   26.6249   -3.2372  -21.1577 C   0  0  0  0  0
   24.6699   -4.3966  -20.9927 C   0  0  0  0  0
   26.0404   -3.2148  -22.3790 C   0  0  0  0  0
   26.6180   -2.5682  -23.4641 C   0  0  0  0  0
   32.0868   -2.0466  -17.4236 O   0  0  0  0  0
   32.4788   -5.4102  -21.0356 O   0  0  0  0  0
   33.1374   -4.6085  -18.3638 O   0  0  0  0  0
   34.8244   -2.8075  -17.0454 O   0  0  0  0  0
   34.9692   -5.4954  -16.4795 O   0  0  0  0  0
   32.9053   -4.0702  -15.7740 O   0  0  0  0  0
   31.6331    0.7398  -24.1904 O   0  0  0  0  0
   32.6900   -0.1862  -22.3366 O   0  0  0  0  0
   27.4978   -0.3898  -25.0894 O   0  0  0  0  0
   28.2610    0.1630  -27.1781 O   0  0  0  0  0
   29.4779   -0.0378  -30.5965 O   0  0  0  0  0
   27.3184   -0.8504  -30.5272 O   0  0  0  0  0
   24.8636   -1.1571  -29.0153 O   0  0  0  0  0
   25.4010   -1.8851  -26.2645 O   0  0  0  0  0
   25.8268   -3.9414  -20.2773 O   0  0  0  0  0
   24.8449   -3.9036  -22.3292 O   0  0  0  0  0
   33.9251   -4.2285  -16.8790 P   0  0  0  0  0
  1 30  1  0  0  0
  2 30  1  0  0  0
  3  4  1  0  0  0
  5  6  1  0  0  0
  6 31  1  0  0  0
  7 31  1  0  0  0
  8 32  1  0  0  0
  8  2  1  0  0  0
  9  4  1  0  0  0
  9 10  1  0  0  0
  9 24  1  0  0  0
 10 11  1  0  0  0
 10 13  1  0  0  0
 11 12  1  0  0  0
 11 14  1  0  0  0
 12 36  1  0  0  0
 13 36  1  0  0  0
 14 38  1  0  0  0
 14 23  1  0  0  0
 15 38  1  0  0  0
 15 39  1  0  0  0
 16 39  1  0  0  0
 16 17  1  0  0  0
 17 40  1  0  0  0
 18 40  1  0  0  0
 18 19  1  0  0  0
 18 41  1  0  0  0
 20 41  1  0  0  0
 20 21  1  0  0  0
 20 16  1  0  0  0
 21 42  1  0  0  0
 21 22  1  0  0  0
 22 43  1  0  0  0
 22 15  1  0  0  0
 24 25  1  0  0  0
 26 44  1  0  0  0
 27 44  1  0  0  0
 27 45  1  0  0  0
 28 45  1  0  0  0
 28 26  1  0  0  0
 29 23  1  0  0  0
 46 32  1  0  0  0
 46 33  1  0  0  0
 46 34  1  0  0  0
  2  3  2  0  0  0
  4  5  2  0  0  0
  6  8  2  0  0  0
 13 37  2  0  0  0
 23 24  2  0  0  0
 25 26  2  0  0  0
 28 29  2  0  0  0
 46 35  2  0  0  0
M  END
> <rmsd>
0.79477495

$$$$
MCULE-7970957549 MolPort-005-945-174 PubChem-45359874


 50 53  0  0  0  0  0  0  0  0999 V2000
   24.5174   -2.0212  -23.1265 C   0  0  0  0  0
   25.7753   -2.8912  -23.0849 C   0  0  0  0  0
   25.3824   -4.3245  -22.7280 C   0  0  0  0  0
   26.7141   -2.3122  -22.0067 C   0  0  0  0  0
   28.0527   -2.9813  -21.8688 C   0  0  0  0  0
   30.4151   -3.0949  -22.5934 C   0  0  0  0  0
   31.1534   -2.6027  -21.3957 C   0  0  0  0  0
   31.6763   -1.3058  -21.3782 C   0  0  0  0  0
   32.3772   -0.8476  -20.2582 C   0  0  0  0  0
   32.5583   -1.6792  -19.1471 C   0  0  0  0  0
   32.0252   -2.9787  -19.1686 C   0  0  0  0  0
   31.3255   -3.4378  -20.2880 C   0  0  0  0  0
   33.5143   -1.9183  -16.8418 C   0  0  0  0  0
   32.2128   -2.1182  -16.0468 C   0  0  0  0  0
   32.1363   -3.5025  -15.3879 C   0  0  0  0  0
   33.5059   -4.0392  -14.9464 C   0  0  0  0  0
   34.6457   -3.5946  -15.8804 C   0  0  0  0  0
   35.6450   -4.7226  -16.0906 C   0  0  0  0  0
   25.5472   -2.8428  -19.8307 C   0  0  0  0  0
   24.7636   -2.2872  -18.7179 C   0  0  0  0  0
   23.8578   -2.9245  -17.9631 C   0  0  0  0  0
   23.3275   -4.2856  -18.1447 C   0  0  0  0  0
   23.1493   -4.8564  -19.4162 C   0  0  0  0  0
   22.5950   -6.1333  -19.5472 C   0  0  0  0  0
   22.1976   -6.8409  -18.4101 C   0  0  0  0  0
   22.3404   -6.2645  -17.1438 C   0  0  0  0  0
   22.8972   -4.9877  -17.0135 C   0  0  0  0  0
   25.6424   -3.2757  -25.3788 C   0  0  0  0  0
   25.7823   -2.3186  -26.5658 C   0  0  0  0  0
   24.8849   -2.7944  -27.7075 C   0  0  0  0  0
   25.0573   -4.2938  -27.9644 C   0  0  0  0  0
   25.0039   -5.0451  -26.6277 C   0  0  0  0  0
   25.1856   -6.5381  -26.8509 C   0  0  0  0  0
   28.2053   -3.9598  -21.0886 O   0  0  0  0  0
   29.1156   -2.5207  -22.6500 O   0  0  0  0  0
   33.2754   -1.1885  -18.0455 O   0  0  0  0  0
   34.1560   -3.1383  -17.1161 O   0  0  0  0  0
   35.0466   -5.7895  -16.7643 O   0  0  0  0  0
   33.7802   -3.6193  -13.6444 O   0  0  0  0  0
   31.5464   -4.4061  -16.2716 O   0  0  0  0  0
   32.1087   -1.1267  -15.0719 O   0  0  0  0  0
   26.0922   -1.9537  -20.7647 O   0  0  0  0  0
   25.7820   -4.0783  -19.8970 O   0  0  0  0  0
   21.6555   -8.1119  -18.5373 O   0  0  0  0  0
   26.4717   -2.8487  -24.3222 O   0  0  0  0  0
   26.0172   -4.5720  -25.7742 O   0  0  0  0  0
   24.9578   -7.2219  -25.6574 O   0  0  0  0  0
   24.0337   -4.7366  -28.8025 O   0  0  0  0  0
   25.1766   -2.0765  -28.8697 O   0  0  0  0  0
   25.4089   -1.0280  -26.1833 O   0  0  0  0  0
  1  2  1  0  0  0
  2  3  1  0  0  0
  2 45  1  0  0  0
  4  2  1  0  0  0
  4  5  1  0  0  0
  4 42  1  0  0  0
  5 35  1  0  0  0
  6 35  1  0  0  0
  6  7  1  0  0  0
  8  9  1  0  0  0
 10 11  1  0  0  0
 10 36  1  0  0  0
 12  7  1  0  0  0
 13 36  1  0  0  0
 13 14  1  0  0  0
 13 37  1  0  0  0
 14 15  1  0  0  0
 14 41  1  0  0  0
 15 16  1  0  0  0
 15 40  1  0  0  0
 16 17  1  0  0  0
 16 39  1  0  0  0
 17 37  1  0  0  0
 17 18  1  0  0  0
 18 38  1  0  0  0
 19 42  1  0  0  0
 19 20  1  0  0  0
 21 22  1  0  0  0
 23 24  1  0  0  0
 25 26  1  0  0  0
 25 44  1  0  0  0
 27 22  1  0  0  0
 28 45  1  0  0  0
 28 29  1  0  0  0
 28 46  1  0  0  0
 29 30  1  0  0  0
 29 50  1  0  0  0
 30 31  1  0  0  0
 30 49  1  0  0  0
 31 32  1  0  0  0
 31 48  1  0  0  0
 32 46  1  0  0  0
 32 33  1  0  0  0
 33 47  1  0  0  0
  5 34  2  0  0  0
  7  8  2  0  0  0
  9 10  2  0  0  0
 11 12  2  0  0  0
 19 43  2  0  0  0
 20 21  2  0  0  0
 22 23  2  0  0  0
 24 25  2  0  0  0
 26 27  2  0  0  0
M  END
> <rmsd>
0.531255901

$$$$
MCULE-7364178948 MolPort-019-937-193 PubChem-56776335


 56 62  0  0  0  0  0  0  0  0999 V2000
   31.3898   -1.3015  -21.9427 C   0  0  0  0  0
   31.1128   -2.7324  -21.4642 C   0  0  0  0  0
   32.1726   -3.6539  -22.0938 C   0  0  0  0  0
   33.5616   -3.3976  -21.5264 C   0  0  0  0  0
   33.5381   -3.6873  -20.0269 C   0  0  0  0  0
   32.5832   -2.7275  -19.2731 C   0  0  0  0  0
   31.1760   -2.8138  -19.9127 C   0  0  0  0  0
   30.1288   -1.9189  -19.2277 C   0  0  0  0  0
   28.8527   -1.7612  -20.0153 C   0  0  0  0  0
   28.6226   -2.3125  -21.2251 C   0  0  0  0  0
   29.6805   -3.1823  -21.8907 C   0  0  0  0  0
   29.5271   -3.0940  -23.4121 C   0  0  0  0  0
   28.1390   -3.5415  -23.8327 C   0  0  0  0  0
   27.0252   -2.6158  -23.3295 C   0  0  0  0  0
   27.3323   -1.9424  -21.9436 C   0  0  0  0  0
   26.1080   -1.8709  -21.0158 C   0  0  0  0  0
   25.4564   -3.2370  -20.7554 C   0  0  0  0  0
   25.6484   -4.2159  -21.9270 C   0  0  0  0  0
   25.7560   -3.4780  -23.2609 C   0  0  0  0  0
   23.9723   -3.0064  -20.5644 C   0  0  0  0  0
   26.0065   -3.7960  -19.4762 C   0  0  0  0  0
   26.7841   -1.5590  -24.3782 C   0  0  0  0  0
   26.4559   -1.0054  -26.7701 C   0  0  0  0  0
   26.9332   -1.5293  -28.1257 C   0  0  0  0  0
   26.0739   -2.7087  -28.5486 C   0  0  0  0  0
   24.6008   -2.3121  -28.5327 C   0  0  0  0  0
   24.2278   -1.6770  -27.1895 C   0  0  0  0  0
   23.9910   -2.7119  -26.0988 C   0  0  0  0  0
   29.4399   -4.6328  -21.4527 C   0  0  0  0  0
   32.4649   -3.1835  -17.8112 C   0  0  0  0  0
   33.8084   -3.3892  -17.1135 C   0  0  0  0  0
   34.7312   -4.3276  -17.9079 C   0  0  0  0  0
   34.9345   -3.9013  -19.3803 C   0  0  0  0  0
   35.7965   -2.6395  -19.4597 C   0  0  0  0  0
   35.6629   -5.0526  -20.0894 C   0  0  0  0  0
   35.9568   -5.7574  -16.5741 C   0  0  0  0  0
   36.1997   -6.9170  -17.5603 C   0  0  0  0  0
   36.2004   -8.2501  -16.8148 C   0  0  0  0  0
   35.0238   -8.3355  -15.8494 C   0  0  0  0  0
   35.0082   -7.0800  -14.9866 C   0  0  0  0  0
   33.0825   -1.2820  -19.3232 C   0  0  0  0  0
   26.4495   -4.9319  -19.3970 O   0  0  0  0  0
   26.5886   -0.3569  -24.0515 O   0  0  0  0  0
   26.7338   -1.9330  -25.7235 O   0  0  0  0  0
   25.0875   -0.6171  -26.7856 O   0  0  0  0  0
   23.3734   -2.1108  -25.0051 O   0  0  0  0  0
   24.3179   -1.4157  -29.5687 O   0  0  0  0  0
   26.4412   -3.1443  -29.8224 O   0  0  0  0  0
   28.2737   -1.9133  -28.0461 O   0  0  0  0  0
   36.1222   -4.6870  -21.3581 O   0  0  0  0  0
   35.9548   -4.4986  -17.2246 O   0  0  0  0  0
   34.7885   -5.9545  -15.7996 O   0  0  0  0  0
   35.1536   -9.4588  -15.0369 O   0  0  0  0  0
   36.1404   -9.3027  -17.7313 O   0  0  0  0  0
   37.4343   -6.7438  -18.1828 O   0  0  0  0  0
   34.4237   -2.1636  -16.8409 O   0  0  0  0  0
  2  1  1  0  0  0
  2  3  1  0  0  0
  3  4  1  0  0  0
  5  4  1  0  0  0
  5  6  1  0  0  0
  6  7  1  0  0  0
  6 30  1  0  0  0
  6 41  1  0  0  0
  7  8  1  0  0  0
  7  2  1  0  0  0
  8  9  1  0  0  0
 11 10  1  0  0  0
 11 12  1  0  0  0
 11 29  1  0  0  0
 11  2  1  0  0  0
 12 13  1  0  0  0
 13 14  1  0  0  0
 14 15  1  0  0  0
 14 22  1  0  0  0
 15 16  1  0  0  0
 15 10  1  0  0  0
 16 17  1  0  0  0
 17 18  1  0  0  0
 17 20  1  0  0  0
 17 21  1  0  0  0
 18 19  1  0  0  0
 19 14  1  0  0  0
 22 44  1  0  0  0
 23 44  1  0  0  0
 23 24  1  0  0  0
 23 45  1  0  0  0
 24 25  1  0  0  0
 24 49  1  0  0  0
 25 26  1  0  0  0
 25 48  1  0  0  0
 26 27  1  0  0  0
 26 47  1  0  0  0
 27 45  1  0  0  0
 27 28  1  0  0  0
 28 46  1  0  0  0
 30 31  1  0  0  0
 31 32  1  0  0  0
 31 56  1  0  0  0
 32 33  1  0  0  0
 32 51  1  0  0  0
 33 34  1  0  0  0
 33 35  1  0  0  0
 33  5  1  0  0  0
 35 50  1  0  0  0
 36 51  1  0  0  0
 36 37  1  0  0  0
 36 52  1  0  0  0
 37 38  1  0  0  0
 37 55  1  0  0  0
 38 39  1  0  0  0
 38 54  1  0  0  0
 39 40  1  0  0  0
 39 53  1  0  0  0
 40 52  1  0  0  0
  9 10  2  0  0  0
 21 42  2  0  0  0
 22 43  2  0  0  0
M  END
> <rmsd>
0.768368781

$$$$
MCULE-8295886704 CHEMBL490450 LN04601464 MolPort-035-706-440 PubChem-14466231


 56 62  0  0  0  0  0  0  0  0999 V2000
   22.6504   -1.2241  -20.8557 C   0  0  0  0  0
   23.5854   -0.4394  -21.7568 C   0  0  0  0  0
   23.0714   -0.4486  -23.1973 C   0  0  0  0  0
   23.4226   -1.7655  -23.8822 C   0  0  0  0  0
   24.9377   -2.0157  -23.9682 C   0  0  0  0  0
   25.1277   -3.5063  -23.6470 C   0  0  0  0  0
   26.5970   -3.9287  -23.6160 C   0  0  0  0  0
   27.4393   -3.1273  -22.5988 C   0  0  0  0  0
   27.0383   -3.4963  -21.1762 C   0  0  0  0  0
   27.1649   -1.6271  -22.8064 C   0  0  0  0  0
   28.1396   -0.6906  -22.7474 C   0  0  0  0  0
   29.6064   -1.0003  -22.5720 C   0  0  0  0  0
   29.7733   -2.4125  -22.0160 C   0  0  0  0  0
   31.1743   -2.8650  -21.5776 C   0  0  0  0  0
   32.0210   -3.2532  -22.7917 C   0  0  0  0  0
   31.8881   -1.7528  -20.8020 C   0  0  0  0  0
   33.1970   -2.2552  -20.1962 C   0  0  0  0  0
   32.9274   -3.3898  -19.2072 C   0  0  0  0  0
   34.0368   -3.4168  -17.2761 C   0  0  0  0  0
   34.2998   -1.7130  -15.8172 C   0  0  0  0  0
   34.6899   -0.2538  -15.6835 C   0  0  0  0  0
   35.0203   -2.5539  -14.7547 C   0  0  0  0  0
   34.6405   -4.0249  -14.9296 C   0  0  0  0  0
   34.7338   -4.4575  -16.3932 C   0  0  0  0  0
   32.1824   -4.5800  -19.8532 C   0  0  0  0  0
   33.0989   -5.3665  -20.7836 C   0  0  0  0  0
   31.7261   -5.5105  -18.7393 C   0  0  0  0  0
   30.9474   -4.0575  -20.6210 C   0  0  0  0  0
   29.8916   -5.1033  -21.0415 C   0  0  0  0  0
   29.3310   -4.9022  -22.4561 C   0  0  0  0  0
   28.9582   -3.4476  -22.8275 C   0  0  0  0  0
   29.3127   -3.3114  -24.3158 C   0  0  0  0  0
   25.7411   -1.1408  -22.9624 C   0  0  0  0  0
   25.0176   -0.9691  -21.6069 C   0  0  0  0  0
   25.7743   -0.0249  -20.6865 C   0  0  0  0  0
   25.3750   -1.6846  -25.3768 C   0  0  0  0  0
   26.2542   -2.4214  -27.5620 C   0  0  0  0  0
   25.5065   -1.8277  -29.5903 C   0  0  0  0  0
   24.3300   -1.2580  -30.3628 C   0  0  0  0  0
   26.1313   -2.9893  -30.3752 C   0  0  0  0  0
   26.6475   -4.1023  -29.4513 C   0  0  0  0  0
   27.1246   -3.5761  -28.0898 C   0  0  0  0  0
   27.5357   -2.7694  -20.1010 O   0  0  0  0  0
   26.2773   -4.4751  -20.9473 O   0  0  0  0  0
   34.1316   -3.7984  -18.6184 O   0  0  0  0  0
   34.6532   -2.1647  -17.1004 O   0  0  0  0  0
   34.6514   -2.1309  -13.4751 O   0  0  0  0  0
   35.4786   -4.8208  -14.1464 O   0  0  0  0  0
   34.1175   -5.7007  -16.5495 O   0  0  0  0  0
   25.2402   -0.5053  -25.8070 O   0  0  0  0  0
   25.9117   -2.6723  -26.2062 O   0  0  0  0  0
   25.0826   -2.2585  -28.3242 O   0  0  0  0  0
   23.9119   -0.0641  -29.7722 O   0  0  0  0  0
   27.1761   -2.5114  -31.1651 O   0  0  0  0  0
   25.6388   -5.0459  -29.2544 O   0  0  0  0  0
   28.4469   -3.1458  -28.1930 O   0  0  0  0  0
  2  1  1  0  0  0
  2  3  1  0  0  0
  3  4  1  0  0  0
  4  5  1  0  0  0
  5  6  1  0  0  0
  5 36  1  0  0  0
  6  7  1  0  0  0
  7  8  1  0  0  0
  8  9  1  0  0  0
  8 10  1  0  0  0
  9 43  1  0  0  0
 12 11  1  0  0  0
 13 12  1  0  0  0
 13 14  1  0  0  0
 14 15  1  0  0  0
 14 16  1  0  0  0
 16 17  1  0  0  0
 17 18  1  0  0  0
 18 45  1  0  0  0
 18 25  1  0  0  0
 19 45  1  0  0  0
 19 46  1  0  0  0
 20 46  1  0  0  0
 20 21  1  0  0  0
 20 22  1  0  0  0
 22 47  1  0  0  0
 22 23  1  0  0  0
 23 48  1  0  0  0
 23 24  1  0  0  0
 24 49  1  0  0  0
 24 19  1  0  0  0
 25 26  1  0  0  0
 25 27  1  0  0  0
 28 25  1  0  0  0
 28 29  1  0  0  0
 28 14  1  0  0  0
 29 30  1  0  0  0
 30 31  1  0  0  0
 31 32  1  0  0  0
 31  8  1  0  0  0
 31 13  1  0  0  0
 33 10  1  0  0  0
 33 34  1  0  0  0
 33  5  1  0  0  0
 34 35  1  0  0  0
 34  2  1  0  0  0
 36 51  1  0  0  0
 37 51  1  0  0  0
 37 52  1  0  0  0
 38 52  1  0  0  0
 38 39  1  0  0  0
 38 40  1  0  0  0
 39 53  1  0  0  0
 40 54  1  0  0  0
 40 41  1  0  0  0
 41 55  1  0  0  0
 41 42  1  0  0  0
 42 56  1  0  0  0
 42 37  1  0  0  0
  9 44  2  0  0  0
 10 11  2  0  0  0
 36 50  2  0  0  0
M  END
> <rmsd>
0.726723075

$$$$
MCULE-8295886704 CHEMBL490450 LN04601464 MolPort-035-706-440 PubChem-14466231


 56 62  0  0  0  0  0  0  0  0999 V2000
   22.7063   -3.2070  -20.3685 C   0  0  0  0  0
   23.5873   -3.2760  -21.6023 C   0  0  0  0  0
   24.1319   -4.6839  -21.7352 C   0  0  0  0  0
   24.8531   -4.8627  -23.0694 C   0  0  0  0  0
   25.6183   -3.6209  -23.5848 C   0  0  0  0  0
   26.9558   -4.0774  -24.1720 C   0  0  0  0  0
   27.8300   -4.7564  -23.1156 C   0  0  0  0  0
   28.0348   -3.9518  -21.8026 C   0  0  0  0  0
   27.4950   -4.7963  -20.6546 C   0  0  0  0  0
   27.2441   -2.6323  -21.8204 C   0  0  0  0  0
   27.6966   -1.5238  -21.2037 C   0  0  0  0  0
   29.0368   -1.4140  -20.5295 C   0  0  0  0  0
   29.7272   -2.7733  -20.3394 C   0  0  0  0  0
   31.1664   -2.6439  -19.7778 C   0  0  0  0  0
   32.0159   -1.7552  -20.6925 C   0  0  0  0  0
   31.0908   -2.0034  -18.3860 C   0  0  0  0  0
   32.4523   -1.9760  -17.6980 C   0  0  0  0  0
   32.9815   -3.3973  -17.5210 C   0  0  0  0  0
   33.9832   -4.0915  -15.6593 C   0  0  0  0  0
   33.1522   -4.0489  -13.5850 C   0  0  0  0  0
   32.4992   -3.2008  -12.5138 C   0  0  0  0  0
   34.2506   -4.9282  -12.9636 C   0  0  0  0  0
   35.5222   -4.9733  -13.8244 C   0  0  0  0  0
   35.2286   -4.9285  -15.3319 C   0  0  0  0  0
   33.1154   -4.1411  -18.8674 C   0  0  0  0  0
   33.4170   -5.6023  -18.5741 C   0  0  0  0  0
   34.2706   -3.5770  -19.6902 C   0  0  0  0  0
   31.7756   -4.0603  -19.6405 C   0  0  0  0  0
   31.7722   -4.8074  -20.9720 C   0  0  0  0  0
   30.3303   -5.0070  -21.4174 C   0  0  0  0  0
   29.5677   -3.6774  -21.5977 C   0  0  0  0  0
   30.1469   -2.9748  -22.8344 C   0  0  0  0  0
   25.8891   -2.5496  -22.4865 C   0  0  0  0  0
   24.7562   -2.3005  -21.4711 C   0  0  0  0  0
   24.2736   -0.8647  -21.5956 C   0  0  0  0  0
   24.8138   -3.0097  -24.7064 C   0  0  0  0  0
   23.6658   -1.0421  -25.6716 C   0  0  0  0  0
   23.6378   -0.4979  -27.8422 C   0  0  0  0  0
   24.3823   -0.5603  -29.1627 C   0  0  0  0  0
   23.0546    0.9113  -27.6418 C   0  0  0  0  0
   23.2211    1.4165  -26.2026 C   0  0  0  0  0
   23.1130    0.2947  -25.1595 C   0  0  0  0  0
   26.8730   -4.1973  -19.5635 O   0  0  0  0  0
   27.6367   -6.0488  -20.6563 O   0  0  0  0  0
   34.1999   -3.3580  -16.8301 O   0  0  0  0  0
   33.6668   -3.2241  -14.5994 O   0  0  0  0  0
   33.7592   -6.2222  -12.7832 O   0  0  0  0  0
   36.3531   -3.9064  -13.4820 O   0  0  0  0  0
   35.0535   -6.2264  -15.8123 O   0  0  0  0  0
   24.5214   -3.7073  -25.7180 O   0  0  0  0  0
   24.3930   -1.6773  -24.6309 O   0  0  0  0  0
   24.4976   -0.8487  -26.7870 O   0  0  0  0  0
   24.7857   -1.8717  -29.4187 O   0  0  0  0  0
   21.7033    0.9065  -27.9860 O   0  0  0  0  0
   24.4557    2.0481  -26.0751 O   0  0  0  0  0
   21.7829    0.1296  -24.7746 O   0  0  0  0  0
  2  1  1  0  0  0
  2  3  1  0  0  0
  3  4  1  0  0  0
  4  5  1  0  0  0
  5  6  1  0  0  0
  5 36  1  0  0  0
  6  7  1  0  0  0
  7  8  1  0  0  0
  8  9  1  0  0  0
  8 10  1  0  0  0
  9 43  1  0  0  0
 12 11  1  0  0  0
 13 12  1  0  0  0
 13 14  1  0  0  0
 14 15  1  0  0  0
 14 16  1  0  0  0
 16 17  1  0  0  0
 17 18  1  0  0  0
 18 45  1  0  0  0
 18 25  1  0  0  0
 19 45  1  0  0  0
 19 46  1  0  0  0
 20 46  1  0  0  0
 20 21  1  0  0  0
 20 22  1  0  0  0
 22 47  1  0  0  0
 22 23  1  0  0  0
 23 48  1  0  0  0
 23 24  1  0  0  0
 24 49  1  0  0  0
 24 19  1  0  0  0
 25 26  1  0  0  0
 25 27  1  0  0  0
 28 25  1  0  0  0
 28 29  1  0  0  0
 28 14  1  0  0  0
 29 30  1  0  0  0
 30 31  1  0  0  0
 31 32  1  0  0  0
 31  8  1  0  0  0
 31 13  1  0  0  0
 33 10  1  0  0  0
 33 34  1  0  0  0
 33  5  1  0  0  0
 34 35  1  0  0  0
 34  2  1  0  0  0
 36 51  1  0  0  0
 37 51  1  0  0  0
 37 52  1  0  0  0
 38 52  1  0  0  0
 38 39  1  0  0  0
 38 40  1  0  0  0
 39 53  1  0  0  0
 40 54  1  0  0  0
 40 41  1  0  0  0
 41 55  1  0  0  0
 41 42  1  0  0  0
 42 56  1  0  0  0
 42 37  1  0  0  0
  9 44  2  0  0  0
 10 11  2  0  0  0
 36 50  2  0  0  0
M  END
> <rmsd>
0.718191326

$$$$
