MCULE-7084372655 MCULE-7788978222 PubChem-217596 PubChem-217597


 40 43  0  0  0  0  0  0  0  0999 V2000
   29.7857   -9.4320  -24.1229 C   0  0  0  0  0  0  0  0  0  0  0  0
   28.9212  -10.2053  -24.9462 O   0  0  0  0  0  0  0  0  0  0  0  0
   27.8041   -9.6573  -25.5847 C   0  0  0  0  0  0  0  0  0  0  0  0
   26.6430   -9.8917  -25.1485 O   0  0  0  0  0  0  0  0  0  0  0  0
   28.1484   -8.5547  -29.1813 C   0  0  0  0  0  0  0  0  0  0  0  0
   27.9736   -9.3574  -28.0451 C   0  0  0  0  0  0  0  0  0  0  0  0
   27.9885   -8.8001  -26.7661 C   0  0  0  0  0  0  0  0  0  0  0  0
   28.1807   -7.4237  -26.6244 C   0  0  0  0  0  0  0  0  0  0  0  0
   28.3581   -6.5960  -27.7445 C   0  0  0  0  0  0  0  0  0  0  0  0
   28.3417   -7.1696  -29.0418 C   0  0  0  0  0  0  0  0  0  0  0  0
   28.4241  -10.4827  -30.7124 C   0  0  0  0  0  0  0  0  0  0  0  0
   28.1338   -9.1136  -30.4646 O   0  0  0  0  0  0  0  0  0  0  0  0
   28.5106   -6.4208  -30.2190 O   0  0  0  0  0  0  0  0  0  0  0  0
   27.4696   -5.7556  -30.9198 C   0  0  0  0  0  0  0  0  0  0  0  0
   28.5487   -5.2198  -27.5741 O   0  0  0  0  0  0  0  0  0  0  0  0
   27.4959   -4.2712  -27.6874 C   0  0  0  0  0  0  0  0  0  0  0  0
   31.1208   -9.2452  -24.8263 C   0  0  0  0  0  0  0  0  0  0  0  0
   30.9197   -9.1392  -26.2628 N   0  0  0  0  0  0  0  0  0  0  0  0
   31.0730  -10.4822  -26.8141 C   0  0  0  0  0  0  0  0  0  0  0  0
   32.2441  -10.4834  -27.7748 C   0  0  0  0  0  0  0  0  0  0  0  0
   32.5298   -9.0322  -28.0315 C   0  0  0  0  0  0  0  0  0  0  0  0
   32.0169   -8.3396  -26.7948 C   0  0  0  0  0  0  0  0  0  0  0  0
   29.9996  -10.1367  -22.7879 C   0  0  0  0  0  0  0  0  0  0  0  0
   29.3230   -9.4219  -21.7095 N   0  0  0  0  0  0  0  0  0  0  0  0
   28.0017   -9.6454  -21.4308 C   0  0  0  0  0  0  0  0  0  0  0  0
   27.3393  -10.4834  -22.1053 O   0  0  0  0  0  0  0  0  0  0  0  0
   27.3886   -8.9366  -20.3866 C   0  0  0  0  0  0  0  0  0  0  0  0
   26.0435   -9.1280  -20.0774 C   0  0  0  0  0  0  0  0  0  0  0  0
   25.4301   -8.4210  -19.0358 C   0  0  0  0  0  0  0  0  0  0  0  0
   26.1871   -7.4900  -18.2756 C   0  0  0  0  0  0  0  0  0  0  0  0
   27.5616   -7.2923  -18.5868 C   0  0  0  0  0  0  0  0  0  0  0  0
   28.1456   -8.0194  -19.6405 C   0  0  0  0  0  0  0  0  0  0  0  0
   29.4917   -7.8479  -19.9661 C   0  0  0  0  0  0  0  0  0  0  0  0
   30.0372   -8.5554  -20.9877 N   0  0  0  0  0  0  0  0  0  0  0  0
   28.3886   -6.3920  -17.8869 O   0  0  0  0  0  0  0  0  0  0  0  0
   29.1396   -5.3354  -18.4673 C   0  0  0  0  0  0  0  0  0  0  0  0
   25.6220   -6.7529  -17.2199 O   0  0  0  0  0  0  0  0  0  0  0  0
   25.8754   -6.9576  -15.8371 C   0  0  0  0  0  0  0  0  0  0  0  0
   24.0760   -8.6406  -18.7552 O   0  0  0  0  0  0  0  0  0  0  0  0
   23.4575   -9.9169  -18.8570 C   0  0  0  0  0  0  0  0  0  0  0  0
 11 12  1  0  0  0
 12  5  1  0  0  0
  5  6  2  0  0  0
  6  7  1  0  0  0
  7  8  2  0  0  0
  8  9  1  0  0  0
  9 10  2  0  0  0
 10 13  1  0  0  0
 13 14  1  0  0  0
  9 15  1  0  0  0
 15 16  1  0  0  0
  7  3  1  0  0  0
  3  4  2  0  0  0
  3  2  1  0  0  0
  2  1  1  0  0  0
  1 17  1  0  0  0
 17 18  1  0  0  0
 18 19  1  0  0  0
 19 20  1  0  0  0
 20 21  1  0  0  0
 21 22  1  0  0  0
  1 23  1  0  0  0
 23 24  1  0  0  0
 24 25  1  0  0  0
 25 26  2  0  0  0
 25 27  1  0  0  0
 27 28  2  0  0  0
 28 29  1  0  0  0
 29 30  2  0  0  0
 30 31  1  0  0  0
 31 32  2  0  0  0
 32 33  1  0  0  0
 33 34  2  0  0  0
 31 35  1  0  0  0
 35 36  1  0  0  0
 30 37  1  0  0  0
 37 38  1  0  0  0
 29 39  1  0  0  0
 39 40  1  0  0  0
 10  5  1  0  0  0
 22 18  1  0  0  0
 34 24  1  0  0  0
 32 27  1  0  0  0
M  END
>  <minimizedAffinity>
48.30760

>  <minimizedRMSD>
7.97963

$$$$
MCULE-2146063816 MCULE-2834095244 MolPort-039-338-459 PubChem-90657714 ZINC000253387915


 75 81  0  0  0  0  0  0  0  0999 V2000
   27.6977   -6.6056  -27.6626 C   0  0  0  0  0  0  0  0  0  0  0  0
   28.7480   -5.7443  -26.9774 C   0  0  0  0  0  0  0  0  0  0  0  0
   29.7443   -6.6792  -26.3236 C   0  0  0  0  0  0  0  0  0  0  0  0
   29.5695   -8.0620  -26.9462 C   0  0  0  0  0  0  0  0  0  0  0  0
   28.1387   -8.0703  -27.5239 C   0  0  0  0  0  0  0  0  0  0  0  0
   27.1469   -8.8844  -26.6701 C   0  0  0  0  0  0  0  0  0  0  0  0
   27.3665   -8.6307  -25.1876 C   0  0  0  0  0  0  0  0  0  0  0  0
   28.7678   -9.0861  -24.7204 C   0  0  0  0  0  0  0  0  0  0  0  0
   29.8177   -9.1881  -25.8844 C   0  0  0  0  0  0  0  0  0  0  0  0
   29.7239  -10.5662  -26.5776 C   0  0  0  0  0  0  0  0  0  0  0  0
   29.7699  -11.7328  -25.6015 C   0  0  0  0  0  0  0  0  0  0  0  0
   28.6158  -11.6135  -24.6048 C   0  0  0  0  0  0  0  0  0  0  0  0
   28.7260  -10.3137  -23.7615 C   0  0  0  0  0  0  0  0  0  0  0  0
   27.5254  -10.1981  -22.8027 C   0  0  0  0  0  0  0  0  0  0  0  0
   27.3473  -11.4384  -21.9313 C   0  0  0  0  0  0  0  0  0  0  0  0
   27.1823  -12.6687  -22.8285 C   0  0  0  0  0  0  0  0  0  0  0  0
   28.3593  -12.9116  -23.8001 C   0  0  0  0  0  0  0  0  0  0  0  0
   29.6221  -13.3475  -23.0621 C   0  0  0  0  0  0  0  0  0  0  0  0
   27.9664  -14.0194  -24.7651 C   0  0  0  0  0  0  0  0  0  0  0  0
   29.9925  -10.3074  -22.9048 C   0  0  0  0  0  0  0  0  0  0  0  0
   31.2308   -9.0351  -25.3150 C   0  0  0  0  0  0  0  0  0  0  0  0
   25.8232   -8.6107  -27.0194 O   0  0  0  0  0  0  0  0  0  0  0  0
   30.5496   -8.1898  -28.1100 C   0  0  0  0  0  0  0  0  0  0  0  0
   25.6302   -7.6757  -26.8478 H   0  0  0  0  0  0  0  0  0  0  0  0
   27.4551   -6.1810  -29.1293 C   0  0  0  0  0  0  0  0  0  0  0  0
   28.7155   -6.5043  -29.9571 C   0  0  0  0  0  0  0  0  0  0  0  0
   27.3039   -4.6577  -29.1508 C   0  0  0  0  0  0  0  0  0  0  0  0
   26.7300   -4.1116  -27.8512 C   0  0  0  0  0  0  0  0  0  0  0  0
   25.5805   -5.3953  -25.4636 C   0  0  0  0  0  0  0  0  0  0  0  0
   24.7572   -5.0655  -26.6689 C   0  0  0  0  0  0  0  0  0  0  0  0
   25.2852   -4.4828  -27.7514 C   0  0  0  0  0  0  0  0  0  0  0  0
   23.3037   -5.3957  -26.6612 C   0  0  0  0  0  0  0  0  0  0  0  0
   26.2369   -6.7515  -29.6120 O   0  0  0  0  0  0  0  0  0  0  0  0
   26.4455   -7.8151  -30.5131 C   0  0  0  0  0  0  0  0  0  0  0  0
   27.0785   -7.2755  -31.8161 C   0  0  0  0  0  0  0  0  0  0  0  0
   28.4187   -7.9451  -32.1387 C   0  0  0  0  0  0  0  0  0  0  0  0
   28.3699   -9.4622  -31.9229 C   0  0  0  0  0  0  0  0  0  0  0  0
   27.3958   -9.8478  -30.8036 C   0  0  0  0  0  0  0  0  0  0  0  0
   27.2540   -8.7912  -29.8885 O   0  0  0  0  0  0  0  0  0  0  0  0
   27.9823  -10.0911  -33.1053 O   0  0  0  0  0  0  0  0  0  0  0  0
   29.4223   -7.3910  -31.3427 O   0  0  0  0  0  0  0  0  0  0  0  0
   26.1946   -7.4749  -32.8793 O   0  0  0  0  0  0  0  0  0  0  0  0
   27.0933   -9.7929  -33.3537 H   0  0  0  0  0  0  0  0  0  0  0  0
   29.2214   -7.5553  -30.4081 H   0  0  0  0  0  0  0  0  0  0  0  0
   26.0365   -8.4250  -32.9946 H   0  0  0  0  0  0  0  0  0  0  0  0
   27.9164  -11.0853  -30.0944 C   0  0  0  0  0  0  0  0  0  0  0  0
   29.2347  -10.8864  -29.6700 O   0  0  0  0  0  0  0  0  0  0  0  0
   29.9880  -11.8363  -30.3677 C   0  0  0  0  0  0  0  0  0  0  0  0
   29.1476  -13.0494  -30.6890 C   0  0  0  0  0  0  0  0  0  0  0  0
   29.7509  -13.5289  -31.9640 C   0  0  0  0  0  0  0  0  0  0  0  0
   30.3694  -12.2832  -32.5565 C   0  0  0  0  0  0  0  0  0  0  0  0
   30.4595  -11.2786  -31.5694 O   0  0  0  0  0  0  0  0  0  0  0  0
   28.7543  -14.0196  -32.8085 O   0  0  0  0  0  0  0  0  0  0  0  0
   29.3075  -14.0170  -29.6952 O   0  0  0  0  0  0  0  0  0  0  0  0
   28.0908  -13.3286  -32.9612 H   0  0  0  0  0  0  0  0  0  0  0  0
   30.2485  -14.2330  -29.6027 H   0  0  0  0  0  0  0  0  0  0  0  0
   31.7493  -12.6060  -33.1029 C   0  0  0  0  0  0  0  0  0  0  0  0
   32.7189  -11.9148  -32.3760 O   0  0  0  0  0  0  0  0  0  0  0  0
   32.5611  -10.9608  -32.4521 H   0  0  0  0  0  0  0  0  0  0  0  0
   26.6672  -13.8189  -22.1808 O   0  0  0  0  0  0  0  0  0  0  0  0
   26.7879  -13.6756  -20.7893 C   0  0  0  0  0  0  0  0  0  0  0  0
   28.1375  -13.0299  -20.4495 C   0  0  0  0  0  0  0  0  0  0  0  0
   28.0458  -12.0835  -19.2433 C   0  0  0  0  0  0  0  0  0  0  0  0
   26.9609  -12.4944  -18.2364 C   0  0  0  0  0  0  0  0  0  0  0  0
   25.7113  -13.0825  -18.9147 C   0  0  0  0  0  0  0  0  0  0  0  0
   25.7344  -12.8805  -20.3070 O   0  0  0  0  0  0  0  0  0  0  0  0
   27.4829  -13.4238  -17.3360 O   0  0  0  0  0  0  0  0  0  0  0  0
   27.7992  -10.7838  -19.6901 O   0  0  0  0  0  0  0  0  0  0  0  0
   29.0838  -14.0193  -20.1957 O   0  0  0  0  0  0  0  0  0  0  0  0
   27.7543  -14.2218  -17.8160 H   0  0  0  0  0  0  0  0  0  0  0  0
   26.9461  -10.7568  -20.1509 H   0  0  0  0  0  0  0  0  0  0  0  0
   28.8065  -14.5424  -19.4273 H   0  0  0  0  0  0  0  0  0  0  0  0
   24.4677  -12.4429  -18.3236 C   0  0  0  0  0  0  0  0  0  0  0  0
   24.7105  -11.0970  -18.0449 O   0  0  0  0  0  0  0  0  0  0  0  0
   25.4373  -11.0251  -17.4064 H   0  0  0  0  0  0  0  0  0  0  0  0
 29 30  1  0  0  0
 30 31  2  0  0  0
 31 28  1  0  0  0
 28 27  1  0  0  0
 25 27  1  0  0  0
 25 26  1  0  0  0
 25  1  1  0  0  0
  1  2  1  0  0  0
  2  3  1  0  0  0
  3  4  1  0  0  0
  4  5  1  0  0  0
  5  6  1  0  0  0
  6  7  1  0  0  0
  8  7  1  0  0  0
  8  9  1  0  0  0
  9 10  1  0  0  0
 10 11  1  0  0  0
 12 11  1  0  0  0
 12 13  1  0  0  0
 13 14  1  0  0  0
 14 15  1  0  0  0
 15 16  1  0  0  0
 16 17  1  0  0  0
 17 18  1  0  0  0
 17 19  1  0  0  0
 16 60  1  0  0  0
 61 60  1  0  0  0
 61 62  1  0  0  0
 62 63  1  0  0  0
 63 64  1  0  0  0
 64 65  1  0  0  0
 65 66  1  0  0  0
 65 73  1  0  0  0
 73 74  1  0  0  0
 64 67  1  0  0  0
 63 68  1  0  0  0
 62 69  1  0  0  0
 13 20  1  0  0  0
  9 21  1  0  0  0
  6 22  1  0  0  0
  4 23  1  0  0  0
 25 33  1  0  0  0
 34 33  1  0  0  0
 34 35  1  0  0  0
 35 36  1  0  0  0
 36 37  1  0  0  0
 37 38  1  0  0  0
 38 39  1  0  0  0
 38 46  1  0  0  0
 46 47  1  0  0  0
 48 47  1  0  0  0
 48 49  1  0  0  0
 49 50  1  0  0  0
 50 51  1  0  0  0
 51 52  1  0  0  0
 51 57  1  0  0  0
 57 58  1  0  0  0
 50 53  1  0  0  0
 49 54  1  0  0  0
 37 40  1  0  0  0
 36 41  1  0  0  0
 35 42  1  0  0  0
 30 32  1  0  0  0
  5  1  1  0  0  0
  9  4  1  0  0  0
 13  8  1  0  0  0
 17 12  1  0  0  0
 66 61  1  0  0  0
 39 34  1  0  0  0
 52 48  1  0  0  0
 74 75  1  0  0  0
 67 70  1  0  0  0
 68 71  1  0  0  0
 69 72  1  0  0  0
 22 24  1  0  0  0
 58 59  1  0  0  0
 53 55  1  0  0  0
 54 56  1  0  0  0
 40 43  1  0  0  0
 41 44  1  0  0  0
 42 45  1  0  0  0
M  END
>  <minimizedAffinity>
50.90641

>  <minimizedRMSD>
14.30825

$$$$
MCULE-4475984106 MolPort-019-937-423 PubChem-51136511 ZINC000253389129


 77 83  0  0  0  0  0  0  0  0999 V2000
   28.3457  -12.3073  -25.2572 C   0  0  0  0  0  0  0  0  0  0  0  0
   29.8825  -12.3133  -25.4356 C   0  0  0  0  0  0  0  0  0  0  0  0
   30.4494  -10.9298  -25.7842 C   0  0  0  0  0  0  0  0  0  0  0  0
   29.5862  -10.1600  -26.8007 C   0  0  0  0  0  0  0  0  0  0  0  0
   28.1652  -10.7216  -26.8638 C   0  0  0  0  0  0  0  0  0  0  0  0
   27.7592  -11.0629  -25.5650 O   0  0  0  0  0  0  0  0  0  0  0  0
   30.5768  -10.1729  -24.6195 O   0  0  0  0  0  0  0  0  0  0  0  0
   30.2296  -13.2275  -26.4314 O   0  0  0  0  0  0  0  0  0  0  0  0
   29.7016  -10.0398  -24.2230 H   0  0  0  0  0  0  0  0  0  0  0  0
   29.8343  -12.9537  -27.2738 H   0  0  0  0  0  0  0  0  0  0  0  0
   27.9984  -12.6563  -23.8191 C   0  0  0  0  0  0  0  0  0  0  0  0
   29.0796  -13.2742  -23.1825 O   0  0  0  0  0  0  0  0  0  0  0  0
   29.8802  -15.8243  -20.1069 C   0  0  0  0  0  0  0  0  0  0  0  0
   29.0576  -14.8282  -20.9048 C   0  0  0  0  0  0  0  0  0  0  0  0
   27.6899  -14.6140  -20.2468 C   0  0  0  0  0  0  0  0  0  0  0  0
   26.8886  -13.6257  -21.0903 C   0  0  0  0  0  0  0  0  0  0  0  0
   27.7029  -12.3638  -21.3816 C   0  0  0  0  0  0  0  0  0  0  0  0
   29.1065  -12.7387  -21.8842 C   0  0  0  0  0  0  0  0  0  0  0  0
   29.7687  -13.6094  -20.9859 O   0  0  0  0  0  0  0  0  0  0  0  0
   27.8158  -11.5736  -20.2355 O   0  0  0  0  0  0  0  0  0  0  0  0
   25.6904  -13.2976  -20.4535 O   0  0  0  0  0  0  0  0  0  0  0  0
   26.9938  -15.8243  -20.1798 O   0  0  0  0  0  0  0  0  0  0  0  0
   28.2784  -12.0717  -19.5436 H   0  0  0  0  0  0  0  0  0  0  0  0
   25.8821  -12.8696  -19.6044 H   0  0  0  0  0  0  0  0  0  0  0  0
   26.8653  -16.1735  -21.0756 H   0  0  0  0  0  0  0  0  0  0  0  0
   27.2823   -9.7587  -27.4335 O   0  0  0  0  0  0  0  0  0  0  0  0
   27.5856   -8.3920  -27.4373 C   0  0  0  0  0  0  0  0  0  0  0  0
   27.4043   -7.6007  -26.2793 C   0  0  0  0  0  0  0  0  0  0  0  0
   27.6935   -6.3026  -26.3220 O   0  0  0  0  0  0  0  0  0  0  0  0
   28.1709   -5.6940  -27.3992 C   0  0  0  0  0  0  0  0  0  0  0  0
   28.4784   -4.3394  -27.3265 C   0  0  0  0  0  0  0  0  0  0  0  0
   29.0172   -3.6598  -28.4259 C   0  0  0  0  0  0  0  0  0  0  0  0
   29.2515   -4.3626  -29.6306 C   0  0  0  0  0  0  0  0  0  0  0  0
   28.9083   -5.7227  -29.7183 C   0  0  0  0  0  0  0  0  0  0  0  0
   28.3740   -6.4039  -28.5989 C   0  0  0  0  0  0  0  0  0  0  0  0
   28.0430   -7.7735  -28.6126 C   0  0  0  0  0  0  0  0  0  0  0  0
   28.1393   -8.4496  -29.6726 O   0  0  0  0  0  0  0  0  0  0  0  0
   29.1281   -6.3885  -30.9216 O   0  0  0  0  0  0  0  0  0  0  0  0
   29.4825   -5.9256  -31.6552 H   0  0  0  0  0  0  0  0  0  0  0  0
   26.9059   -8.1458  -24.9936 C   0  0  0  0  0  0  0  0  0  0  0  0
   27.2596   -9.4244  -24.5413 C   0  0  0  0  0  0  0  0  0  0  0  0
   26.8054   -9.8955  -23.3062 C   0  0  0  0  0  0  0  0  0  0  0  0
   25.9920   -9.0894  -22.5080 C   0  0  0  0  0  0  0  0  0  0  0  0
   25.6424   -7.8091  -22.9400 C   0  0  0  0  0  0  0  0  0  0  0  0
   26.1013   -7.3391  -24.1741 C   0  0  0  0  0  0  0  0  0  0  0  0
   25.5344   -9.5590  -21.2844 O   0  0  0  0  0  0  0  0  0  0  0  0
   25.7694  -10.4186  -20.9948 H   0  0  0  0  0  0  0  0  0  0  0  0
   29.8171   -3.7612  -30.7672 O   0  0  0  0  0  0  0  0  0  0  0  0
   31.1982   -3.4739  -30.9216 C   0  0  0  0  0  0  0  0  0  0  0  0
   29.3210   -2.2976  -28.3240 O   0  0  0  0  0  0  0  0  0  0  0  0
   28.7295   -1.4435  -27.3521 C   0  0  0  0  0  0  0  0  0  0  0  0
   29.3908   -0.0668  -27.3914 C   0  0  0  0  0  0  0  0  0  0  0  0
   28.7857    0.8168  -26.2982 C   0  0  0  0  0  0  0  0  0  0  0  0
   27.2572    0.7887  -26.3621 C   0  0  0  0  0  0  0  0  0  0  0  0
   26.7173   -0.6393  -26.5509 C   0  0  0  0  0  0  0  0  0  0  0  0
   27.3474   -1.3290  -27.6149 O   0  0  0  0  0  0  0  0  0  0  0  0
   26.6997   -1.4451  -25.2567 C   0  0  0  0  0  0  0  0  0  0  0  0
   26.8145    1.5974  -27.4099 O   0  0  0  0  0  0  0  0  0  0  0  0
   29.2131    0.4012  -25.0350 O   0  0  0  0  0  0  0  0  0  0  0  0
   30.7692   -0.1840  -27.2065 O   0  0  0  0  0  0  0  0  0  0  0  0
   27.1558    1.2535  -28.2502 H   0  0  0  0  0  0  0  0  0  0  0  0
   28.9144   -0.5077  -24.8754 H   0  0  0  0  0  0  0  0  0  0  0  0
   30.9464   -0.5881  -26.3426 H   0  0  0  0  0  0  0  0  0  0  0  0
   30.1711  -10.1906  -28.0721 O   0  0  0  0  0  0  0  0  0  0  0  0
   29.7448  -11.3940  -28.6510 C   0  0  0  0  0  0  0  0  0  0  0  0
   29.8272  -11.3125  -30.1865 C   0  0  0  0  0  0  0  0  0  0  0  0
   30.2031  -12.6651  -30.7973 C   0  0  0  0  0  0  0  0  0  0  0  0
   31.4726  -13.2212  -30.1442 C   0  0  0  0  0  0  0  0  0  0  0  0
   31.6634  -12.6803  -28.7212 C   0  0  0  0  0  0  0  0  0  0  0  0
   30.4200  -12.5075  -28.0817 O   0  0  0  0  0  0  0  0  0  0  0  0
   32.5218  -13.6346  -27.9153 C   0  0  0  0  0  0  0  0  0  0  0  0
   32.5817  -12.8872  -30.9216 O   0  0  0  0  0  0  0  0  0  0  0  0
   29.1576  -13.5786  -30.6344 O   0  0  0  0  0  0  0  0  0  0  0  0
   28.6187  -10.8500  -30.7088 O   0  0  0  0  0  0  0  0  0  0  0  0
   32.6631  -11.9219  -30.9710 H   0  0  0  0  0  0  0  0  0  0  0  0
   28.9906  -13.7135  -29.6885 H   0  0  0  0  0  0  0  0  0  0  0  0
   27.9095  -11.4717  -30.4822 H   0  0  0  0  0  0  0  0  0  0  0  0
 14 13  1  0  0  0
 14 15  1  0  0  0
 15 16  1  0  0  0
 15 22  1  0  0  0
 16 17  1  0  0  0
 16 21  1  0  0  0
 17 18  1  0  0  0
 17 20  1  0  0  0
 18 19  1  0  0  0
 18 12  1  0  0  0
 19 14  1  0  0  0
 12 11  1  0  0  0
  1 11  1  0  0  0
  1  2  1  0  0  0
  2  3  1  0  0  0
  2  8  1  0  0  0
  3  4  1  0  0  0
  3  7  1  0  0  0
  4  5  1  0  0  0
  4 64  1  0  0  0
  5  6  1  0  0  0
  5 26  1  0  0  0
  6  1  1  0  0  0
 26 27  1  0  0  0
 27 28  2  0  0  0
 28 29  1  0  0  0
 28 40  1  0  0  0
 29 30  1  0  0  0
 30 31  2  0  0  0
 31 32  1  0  0  0
 32 33  2  0  0  0
 32 50  1  0  0  0
 33 34  1  0  0  0
 33 48  1  0  0  0
 34 35  2  0  0  0
 34 38  1  0  0  0
 35 36  1  0  0  0
 35 30  1  0  0  0
 36 37  2  0  0  0
 36 27  1  0  0  0
 48 49  1  0  0  0
 51 50  1  0  0  0
 51 52  1  0  0  0
 52 53  1  0  0  0
 52 60  1  0  0  0
 53 54  1  0  0  0
 53 59  1  0  0  0
 54 55  1  0  0  0
 54 58  1  0  0  0
 55 56  1  0  0  0
 55 57  1  0  0  0
 56 51  1  0  0  0
 40 41  2  0  0  0
 41 42  1  0  0  0
 42 43  2  0  0  0
 43 44  1  0  0  0
 43 46  1  0  0  0
 44 45  2  0  0  0
 45 40  1  0  0  0
 65 64  1  0  0  0
 65 66  1  0  0  0
 66 67  1  0  0  0
 66 74  1  0  0  0
 67 68  1  0  0  0
 67 73  1  0  0  0
 68 69  1  0  0  0
 68 72  1  0  0  0
 69 70  1  0  0  0
 69 71  1  0  0  0
 70 65  1  0  0  0
 38 39  1  0  0  0
 58 61  1  0  0  0
 59 62  1  0  0  0
 60 63  1  0  0  0
 46 47  1  0  0  0
 72 75  1  0  0  0
 73 76  1  0  0  0
 74 77  1  0  0  0
  7  9  1  0  0  0
  8 10  1  0  0  0
 20 23  1  0  0  0
 21 24  1  0  0  0
 22 25  1  0  0  0
M  END
>  <minimizedAffinity>
63.48058

>  <minimizedRMSD>
9.01800

$$$$
MCULE-4274587015 PubChem-4921818


 38 41  0  0  0  0  0  0  0  0999 V2000
   29.1920   -5.4408  -20.3269 C   0  0  0  0  0  0  0  0  0  0  0  0
   30.3506   -5.9298  -19.7483 C   0  0  0  0  0  0  0  0  0  0  0  0
   30.3512   -5.4970  -18.4722 N   0  0  0  0  0  0  0  0  0  0  0  0
   29.2541   -4.7795  -18.2826 N   0  0  0  0  0  0  0  0  0  0  0  0
   28.5327   -4.7235  -19.3945 N   0  0  0  0  0  0  0  0  0  0  0  0
   31.3258   -5.7588  -17.4502 C   0  0  0  0  0  0  0  0  0  0  0  0
   32.1481   -4.8389  -16.9143 N   0  0  0  0  0  0  0  0  0  0  0  0
   32.8773   -5.4922  -16.0481 O   0  0  0  0  0  0  0  0  0  0  0  0
   32.5992   -6.7652  -15.9735 N   0  0  0  0  0  0  0  0  0  0  0  0
   31.6076   -6.9571  -16.8569 C   0  0  0  0  0  0  0  0  0  0  0  0
   31.0129   -8.2214  -17.1395 N   0  0  0  0  0  0  0  0  0  0  0  0
   31.2992   -9.0220  -16.6432 H   0  0  0  0  0  0  0  0  0  0  0  0
   30.3159   -8.2940  -17.8310 H   0  0  0  0  0  0  0  0  0  0  0  0
   30.9626   -9.1616  -17.4271 H   0  0  0  0  0  0  0  0  0  0  0  0
   29.1484   -6.7431  -22.4779 N   0  0  0  0  0  0  0  0  0  0  0  0
   28.7240   -5.6162  -21.7111 C   0  0  0  0  0  0  0  0  0  0  0  0
   27.9176   -4.7859  -22.2090 O   0  0  0  0  0  0  0  0  0  0  0  0
   29.6536   -7.4639  -22.0370 H   0  0  0  0  0  0  0  0  0  0  0  0
   29.2435   -7.8868  -24.5034 C   0  0  0  0  0  0  0  0  0  0  0  0
   28.8609   -6.8437  -23.8433 N   0  0  0  0  0  0  0  0  0  0  0  0
   27.5191   -7.8233  -27.8711 C   0  0  0  0  0  0  0  0  0  0  0  0
   28.5852   -8.2298  -28.7087 C   0  0  0  0  0  0  0  0  0  0  0  0
   29.8340   -8.5192  -28.1533 C   0  0  0  0  0  0  0  0  0  0  0  0
   30.0395   -8.4081  -26.7780 C   0  0  0  0  0  0  0  0  0  0  0  0
   28.9939   -8.0164  -25.9411 C   0  0  0  0  0  0  0  0  0  0  0  0
   27.7396   -7.7289  -26.4920 C   0  0  0  0  0  0  0  0  0  0  0  0
   28.4297   -8.3461  -30.0848 O   0  0  0  0  0  0  0  0  0  0  0  0
   26.2441   -7.4799  -28.3473 O   0  0  0  0  0  0  0  0  0  0  0  0
   26.3925   -5.1888  -27.6520 C   0  0  0  0  0  0  0  0  0  0  0  0
   25.4816   -6.3732  -27.8865 C   0  0  0  0  0  0  0  0  0  0  0  0
   31.4652   -6.6744  -20.4186 C   0  0  0  0  0  0  0  0  0  0  0  0
   32.8003   -5.5339  -20.9110 S   0  0  0  0  0  0  0  0  0  0  0  0
   33.2143   -6.4426  -22.3984 C   0  0  0  0  0  0  0  0  0  0  0  0
   33.9947   -5.9604  -23.3810 N   0  0  0  0  0  0  0  0  0  0  0  0
   34.0399   -6.8941  -24.3225 N   0  0  0  0  0  0  0  0  0  0  0  0
   33.2830   -7.9338  -23.9100 C   0  0  0  0  0  0  0  0  0  0  0  0
   32.7569   -7.6658  -22.7031 N   0  0  0  0  0  0  0  0  0  0  0  0
   31.8762   -8.5192  -21.9258 C   0  0  0  0  0  0  0  0  0  0  0  0
 29 30  1  0  0  0
 30 28  1  0  0  0
 28 21  1  0  0  0
 21 22  2  0  0  0
 22 23  1  0  0  0
 22 27  1  0  0  0
 23 24  2  0  0  0
 24 25  1  0  0  0
 25 26  2  0  0  0
 25 19  1  0  0  0
 26 21  1  0  0  0
 19 20  2  0  0  0
 20 15  1  0  0  0
 15 16  1  0  0  0
 16 17  2  0  0  0
 16  1  1  0  0  0
  1  2  2  0  0  0
  2  3  1  0  0  0
  2 31  1  0  0  0
  3  4  1  0  0  0
  3  6  1  0  0  0
  4  5  2  0  0  0
  5  1  1  0  0  0
  6  7  2  0  0  0
  7  8  1  0  0  0
  8  9  1  0  0  0
  9 10  2  0  0  0
 10 11  1  0  0  0
 10  6  1  0  0  0
 31 32  1  0  0  0
 32 33  1  0  0  0
 33 34  2  0  0  0
 34 35  1  0  0  0
 35 36  2  0  0  0
 36 37  1  0  0  0
 37 38  1  0  0  0
 37 33  1  0  0  0
 15 18  1  0  0  0
 11 12  1  0  0  0
 11 13  1  0  0  0
 11 14  1  0  0  0
M  CHG 1  11   1
M  CHG 1  27  -1
M  END
>  <minimizedAffinity>
66.63172

>  <minimizedRMSD>
4.65139

$$$$
MCULE-1726452636 CSC028036369 MolPort-044-401-190 PubChem-72035299


 36 39  0  0  0  0  0  0  0  0999 V2000
   28.3963   -6.7165  -23.5627 N   0  0  0  0  0  0  0  0  0  0  0  0
   27.7209   -5.9678  -22.5504 C   0  0  0  0  0  0  0  0  0  0  0  0
   26.5480   -5.5514  -22.7568 O   0  0  0  0  0  0  0  0  0  0  0  0
   29.3108   -7.0409  -23.3964 H   0  0  0  0  0  0  0  0  0  0  0  0
   28.3912   -5.6843  -21.2694 C   0  0  0  0  0  0  0  0  0  0  0  0
   28.6765   -4.3629  -20.8947 C   0  0  0  0  0  0  0  0  0  0  0  0
   29.3104   -4.0942  -19.6783 C   0  0  0  0  0  0  0  0  0  0  0  0
   29.6638   -5.1453  -18.8265 C   0  0  0  0  0  0  0  0  0  0  0  0
   29.3890   -6.4655  -19.1963 C   0  0  0  0  0  0  0  0  0  0  0  0
   28.7533   -6.7334  -20.4119 C   0  0  0  0  0  0  0  0  0  0  0  0
   30.3583   -4.8624  -17.5394 C   0  0  0  0  0  0  0  0  0  0  0  0
   31.3961   -5.8518  -17.3028 N   0  0  0  0  0  0  0  0  0  0  0  0
   32.6695   -5.6818  -17.6111 N   0  0  0  0  0  0  0  0  0  0  0  0
   33.2397   -6.8506  -17.2561 C   0  0  0  0  0  0  0  0  0  0  0  0
   32.3276   -7.7091  -16.7518 N   0  0  0  0  0  0  0  0  0  0  0  0
   31.1789   -7.0538  -16.7994 N   0  0  0  0  0  0  0  0  0  0  0  0
   34.6737   -7.1482  -17.3928 C   0  0  0  0  0  0  0  0  0  0  0  0
   35.3065   -8.0113  -16.4869 C   0  0  0  0  0  0  0  0  0  0  0  0
   36.6685   -8.2998  -16.6205 C   0  0  0  0  0  0  0  0  0  0  0  0
   37.4053   -7.7265  -17.6607 C   0  0  0  0  0  0  0  0  0  0  0  0
   36.7808   -6.8644  -18.5667 C   0  0  0  0  0  0  0  0  0  0  0  0
   35.4191   -6.5755  -18.4328 C   0  0  0  0  0  0  0  0  0  0  0  0
   28.4673   -6.9635  -25.8805 C   0  0  0  0  0  0  0  0  0  0  0  0
   27.7785   -6.9962  -24.7868 N   0  0  0  0  0  0  0  0  0  0  0  0
   26.5552   -7.8524  -29.6112 C   0  0  0  0  0  0  0  0  0  0  0  0
   27.8952   -8.2344  -29.4378 C   0  0  0  0  0  0  0  0  0  0  0  0
   28.5727   -7.9200  -28.2262 C   0  0  0  0  0  0  0  0  0  0  0  0
   27.8607   -7.2483  -27.1923 C   0  0  0  0  0  0  0  0  0  0  0  0
   26.5265   -6.8808  -27.3976 C   0  0  0  0  0  0  0  0  0  0  0  0
   25.8818   -7.1742  -28.5917 C   0  0  0  0  0  0  0  0  0  0  0  0
   25.5446   -7.1743  -31.7700 C   0  0  0  0  0  0  0  0  0  0  0  0
   25.9103   -8.1611  -30.8149 O   0  0  0  0  0  0  0  0  0  0  0  0
   29.9206   -8.3000  -28.0941 O   0  0  0  0  0  0  0  0  0  0  0  0
   30.4962   -8.9151  -26.9500 C   0  0  0  0  0  0  0  0  0  0  0  0
   28.5004   -8.9147  -30.5102 O   0  0  0  0  0  0  0  0  0  0  0  0
   29.3266   -8.3238  -31.5030 C   0  0  0  0  0  0  0  0  0  0  0  0
 31 32  1  0  0  0
 32 25  1  0  0  0
 25 26  2  0  0  0
 26 27  1  0  0  0
 26 35  1  0  0  0
 27 28  2  0  0  0
 27 33  1  0  0  0
 28 29  1  0  0  0
 28 23  1  0  0  0
 29 30  2  0  0  0
 30 25  1  0  0  0
 23 24  2  0  0  0
 24  1  1  0  0  0
  1  2  1  0  0  0
  2  3  2  0  0  0
  2  5  1  0  0  0
  5  6  2  0  0  0
  6  7  1  0  0  0
  7  8  2  0  0  0
  8  9  1  0  0  0
  8 11  1  0  0  0
  9 10  2  0  0  0
 10  5  1  0  0  0
 11 12  1  0  0  0
 12 13  1  0  0  0
 13 14  2  0  0  0
 14 15  1  0  0  0
 14 17  1  0  0  0
 15 16  2  0  0  0
 16 12  1  0  0  0
 17 18  2  0  0  0
 18 19  1  0  0  0
 19 20  2  0  0  0
 20 21  1  0  0  0
 21 22  2  0  0  0
 22 17  1  0  0  0
 33 34  1  0  0  0
 35 36  1  0  0  0
  1  4  1  0  0  0
M  END
>  <minimizedAffinity>
66.85282

>  <minimizedRMSD>
12.84387

$$$$
MCULE-7970957549 MolPort-005-945-174 PubChem-45359874


 59 62  0  0  0  0  0  0  0  0999 V2000
   27.5244   -9.1414  -23.8121 C   0  0  0  0  0  0  0  0  0  0  0  0
   27.2897  -10.5435  -25.8476 C   0  0  0  0  0  0  0  0  0  0  0  0
   28.2876   -9.7396  -25.0116 C   0  0  0  0  0  0  0  0  0  0  0  0
   29.3956  -10.6709  -24.5206 C   0  0  0  0  0  0  0  0  0  0  0  0
   28.8272   -8.6563  -25.7552 O   0  0  0  0  0  0  0  0  0  0  0  0
   28.5136   -8.7824  -27.1235 C   0  0  0  0  0  0  0  0  0  0  0  0
   28.2563   -7.3980  -27.7251 C   0  0  0  0  0  0  0  0  0  0  0  0
   27.9242   -7.5455  -29.2094 C   0  0  0  0  0  0  0  0  0  0  0  0
   28.9235   -8.4658  -29.9155 C   0  0  0  0  0  0  0  0  0  0  0  0
   29.1198   -9.7363  -29.0781 C   0  0  0  0  0  0  0  0  0  0  0  0
   29.5862   -9.3945  -27.7956 O   0  0  0  0  0  0  0  0  0  0  0  0
   28.4300   -8.7969  -31.1776 O   0  0  0  0  0  0  0  0  0  0  0  0
   27.9205   -6.2897  -29.8209 O   0  0  0  0  0  0  0  0  0  0  0  0
   27.1896   -6.7830  -27.0654 O   0  0  0  0  0  0  0  0  0  0  0  0
   27.5767   -9.2483  -31.0829 H   0  0  0  0  0  0  0  0  0  0  0  0
   28.8017   -5.8911  -29.7462 H   0  0  0  0  0  0  0  0  0  0  0  0
   26.3917   -7.3254  -27.1652 H   0  0  0  0  0  0  0  0  0  0  0  0
   30.1189  -10.6650  -29.7497 C   0  0  0  0  0  0  0  0  0  0  0  0
   31.3113  -10.6727  -29.0272 O   0  0  0  0  0  0  0  0  0  0  0  0
   31.6774   -9.7749  -28.9980 H   0  0  0  0  0  0  0  0  0  0  0  0
   26.8967  -10.1298  -22.8698 C   0  0  0  0  0  0  0  0  0  0  0  0
   25.7934  -10.6727  -23.1484 O   0  0  0  0  0  0  0  0  0  0  0  0
   27.5782  -10.4626  -21.6964 O   0  0  0  0  0  0  0  0  0  0  0  0
   28.9839  -10.6727  -21.6585 C   0  0  0  0  0  0  0  0  0  0  0  0
   29.6693   -9.5151  -21.0164 C   0  0  0  0  0  0  0  0  0  0  0  0
   31.0155   -9.2558  -21.2929 C   0  0  0  0  0  0  0  0  0  0  0  0
   31.6608   -8.1754  -20.6830 C   0  0  0  0  0  0  0  0  0  0  0  0
   30.9665   -7.3449  -19.7959 C   0  0  0  0  0  0  0  0  0  0  0  0
   29.6129   -7.6071  -19.5273 C   0  0  0  0  0  0  0  0  0  0  0  0
   28.9674   -8.6873  -20.1356 C   0  0  0  0  0  0  0  0  0  0  0  0
   31.6496   -6.2765  -19.1955 O   0  0  0  0  0  0  0  0  0  0  0  0
   31.2885   -5.6792  -17.9499 C   0  0  0  0  0  0  0  0  0  0  0  0
   31.7921   -6.5204  -16.7647 C   0  0  0  0  0  0  0  0  0  0  0  0
   32.2939   -5.6525  -15.6023 C   0  0  0  0  0  0  0  0  0  0  0  0
   31.5218   -4.3330  -15.4551 C   0  0  0  0  0  0  0  0  0  0  0  0
   31.0501   -3.7683  -16.8071 C   0  0  0  0  0  0  0  0  0  0  0  0
   31.7423   -4.3507  -17.8826 O   0  0  0  0  0  0  0  0  0  0  0  0
   30.4205   -4.5211  -14.6193 O   0  0  0  0  0  0  0  0  0  0  0  0
   33.6505   -5.3796  -15.7776 O   0  0  0  0  0  0  0  0  0  0  0  0
   30.7671   -7.3550  -16.3205 O   0  0  0  0  0  0  0  0  0  0  0  0
   29.8188   -5.1690  -15.0182 H   0  0  0  0  0  0  0  0  0  0  0  0
   33.7754   -4.8739  -16.5959 H   0  0  0  0  0  0  0  0  0  0  0  0
   30.0222   -6.8159  -16.0116 H   0  0  0  0  0  0  0  0  0  0  0  0
   31.1949   -2.2541  -16.8418 C   0  0  0  0  0  0  0  0  0  0  0  0
   31.0204   -1.7146  -15.5656 O   0  0  0  0  0  0  0  0  0  0  0  0
   30.1322   -1.9313  -15.2416 H   0  0  0  0  0  0  0  0  0  0  0  0
   26.7185   -7.9892  -24.0966 O   0  0  0  0  0  0  0  0  0  0  0  0
   25.6886   -7.4866  -23.2925 C   0  0  0  0  0  0  0  0  0  0  0  0
   25.6973   -6.2902  -22.8993 O   0  0  0  0  0  0  0  0  0  0  0  0
   24.5507   -8.3669  -22.9901 C   0  0  0  0  0  0  0  0  0  0  0  0
   23.9852   -8.5834  -21.7945 C   0  0  0  0  0  0  0  0  0  0  0  0
   24.4421   -8.1055  -20.4793 C   0  0  0  0  0  0  0  0  0  0  0  0
   25.3470   -8.8353  -19.6904 C   0  0  0  0  0  0  0  0  0  0  0  0
   25.7166   -8.3708  -18.4244 C   0  0  0  0  0  0  0  0  0  0  0  0
   25.1700   -7.1839  -17.9303 C   0  0  0  0  0  0  0  0  0  0  0  0
   24.2424   -6.4704  -18.6963 C   0  0  0  0  0  0  0  0  0  0  0  0
   23.8750   -6.9348  -19.9638 C   0  0  0  0  0  0  0  0  0  0  0  0
   25.5422   -6.7164  -16.6779 O   0  0  0  0  0  0  0  0  0  0  0  0
   26.1637   -7.1947  -16.1650 H   0  0  0  0  0  0  0  0  0  0  0  0
  2  3  1  0  0  0
  3  4  1  0  0  0
  3  5  1  0  0  0
  1  3  1  0  0  0
  1 21  1  0  0  0
  1 47  1  0  0  0
 21 22  2  0  0  0
 21 23  1  0  0  0
 23 24  1  0  0  0
 24 25  1  0  0  0
 25 26  2  0  0  0
 26 27  1  0  0  0
 27 28  2  0  0  0
 28 29  1  0  0  0
 28 31  1  0  0  0
 29 30  2  0  0  0
 30 25  1  0  0  0
 32 31  1  0  0  0
 32 33  1  0  0  0
 33 34  1  0  0  0
 33 40  1  0  0  0
 34 35  1  0  0  0
 34 39  1  0  0  0
 35 36  1  0  0  0
 35 38  1  0  0  0
 36 37  1  0  0  0
 36 44  1  0  0  0
 37 32  1  0  0  0
 44 45  1  0  0  0
 47 48  1  0  0  0
 48 49  2  0  0  0
 48 50  1  0  0  0
 50 51  2  0  0  0
 51 52  1  0  0  0
 52 53  2  0  0  0
 53 54  1  0  0  0
 54 55  2  0  0  0
 55 56  1  0  0  0
 55 58  1  0  0  0
 56 57  2  0  0  0
 57 52  1  0  0  0
  6  5  1  0  0  0
  6  7  1  0  0  0
  7  8  1  0  0  0
  7 14  1  0  0  0
  8  9  1  0  0  0
  8 13  1  0  0  0
  9 10  1  0  0  0
  9 12  1  0  0  0
 10 11  1  0  0  0
 10 18  1  0  0  0
 11  6  1  0  0  0
 18 19  1  0  0  0
 45 46  1  0  0  0
 38 41  1  0  0  0
 39 42  1  0  0  0
 40 43  1  0  0  0
 58 59  1  0  0  0
 19 20  1  0  0  0
 12 15  1  0  0  0
 13 16  1  0  0  0
 14 17  1  0  0  0
M  END
>  <minimizedAffinity>
67.54632

>  <minimizedRMSD>
5.95053

$$$$
MCULE-8765920212 PubChem-71587576


 63 68  0  0  0  0  0  0  0  0999 V2000
   32.8763   -7.5381  -22.4715 N   0  0  0  0  0  0  0  0  0  0  0  0
   33.4601   -8.0714  -21.8851 H   0  0  0  0  0  0  0  0  0  0  0  0
   30.7096   -9.0138  -24.9471 C   0  0  0  0  0  0  0  0  0  0  0  0
   31.8278   -9.3362  -25.7262 C   0  0  0  0  0  0  0  0  0  0  0  0
   33.1853   -8.7725  -24.9004 S   0  0  0  0  0  0  0  0  0  0  0  0
   32.3012   -8.1500  -23.6240 C   0  0  0  0  0  0  0  0  0  0  0  0
   30.9785   -8.3530  -23.7854 N   0  0  0  0  0  0  0  0  0  0  0  0
   29.3196   -9.3432  -25.3355 C   0  0  0  0  0  0  0  0  0  0  0  0
   28.5681   -9.9208  -24.4436 N   0  0  0  0  0  0  0  0  0  0  0  0
   28.9463   -7.7487  -27.2736 N   0  0  0  0  0  0  0  0  0  0  0  0
   28.8213   -9.0553  -26.7106 C   0  0  0  0  0  0  0  0  0  0  0  0
   28.2706   -9.9680  -27.3858 O   0  0  0  0  0  0  0  0  0  0  0  0
   29.4529   -7.0641  -26.7799 H   0  0  0  0  0  0  0  0  0  0  0  0
   28.9343  -10.7717  -30.9875 C   0  0  0  0  0  0  0  0  0  0  0  0
   27.7716  -10.2195  -30.5588 C   0  0  0  0  0  0  0  0  0  0  0  0
   27.8582   -8.9618  -29.8764 N   0  0  0  0  0  0  0  0  0  0  0  0
   28.9714   -8.0699  -29.6753 C   0  0  0  0  0  0  0  0  0  0  0  0
   28.3479   -7.3955  -28.5559 C   0  0  0  0  0  0  0  0  0  0  0  0
   27.1409   -8.2492  -28.7928 C   0  0  0  0  0  0  0  0  0  0  0  0
   26.0097   -8.3465  -28.2510 O   0  0  0  0  0  0  0  0  0  0  0  0
   30.4520   -9.0934  -29.3438 S   0  0  0  0  0  0  0  0  0  0  0  0
   30.2307   -9.9997  -30.9217 C   0  0  0  0  0  0  0  0  0  0  0  0
   26.4467  -10.8910  -30.6760 C   0  0  0  0  0  0  0  0  0  0  0  0
   26.3432  -12.1484  -30.6645 O   0  0  0  0  0  0  0  0  0  0  0  0
   25.2926  -10.1331  -30.8361 O   0  0  0  0  0  0  0  0  0  0  0  0
   25.3444   -9.1976  -30.8479 H   0  0  0  0  0  0  0  0  0  0  0  0
   29.0343  -12.1656  -31.5137 C   0  0  0  0  0  0  0  0  0  0  0  0
   30.0513  -12.2350  -32.5030 O   0  0  0  0  0  0  0  0  0  0  0  0
   31.8034  -12.2357  -30.7384 C   0  0  0  0  0  0  0  0  0  0  0  0
   31.3994  -12.1648  -32.1705 C   0  0  0  0  0  0  0  0  0  0  0  0
   32.2839  -12.0675  -33.0608 O   0  0  0  0  0  0  0  0  0  0  0  0
   27.2688  -10.3062  -24.6810 O   0  0  0  0  0  0  0  0  0  0  0  0
   26.9169  -11.6761  -24.6348 C   0  0  0  0  0  0  0  0  0  0  0  0
   32.6209   -6.1464  -22.1424 C   0  0  0  0  0  0  0  0  0  0  0  0
   31.8383   -6.0677  -20.8748 C   0  0  0  0  0  0  0  0  0  0  0  0
   32.1930   -6.7422  -19.7554 C   0  0  0  0  0  0  0  0  0  0  0  0
   31.4928   -6.4182  -18.5486 N   0  0  0  0  0  0  0  0  0  0  0  0
   30.3600   -5.5620  -18.3147 C   0  0  0  0  0  0  0  0  0  0  0  0
   30.6382   -5.4257  -16.9004 C   0  0  0  0  0  0  0  0  0  0  0  0
   31.7553   -6.4068  -17.0907 C   0  0  0  0  0  0  0  0  0  0  0  0
   32.6006   -6.9451  -16.3269 O   0  0  0  0  0  0  0  0  0  0  0  0
   30.5468   -4.0881  -19.3794 S   0  0  0  0  0  0  0  0  0  0  0  0
   30.6472   -5.1396  -20.8779 C   0  0  0  0  0  0  0  0  0  0  0  0
   33.3189   -7.7125  -19.7087 C   0  0  0  0  0  0  0  0  0  0  0  0
   33.2592   -8.7787  -20.3749 O   0  0  0  0  0  0  0  0  0  0  0  0
   34.4692   -7.4559  -18.9734 O   0  0  0  0  0  0  0  0  0  0  0  0
   34.5373   -6.6689  -18.4694 H   0  0  0  0  0  0  0  0  0  0  0  0
   31.2045   -4.1272  -16.5557 N   0  0  0  0  0  0  0  0  0  0  0  0
   31.1142   -3.5732  -15.2418 C   0  0  0  0  0  0  0  0  0  0  0  0
   30.5173   -4.2151  -14.3357 O   0  0  0  0  0  0  0  0  0  0  0  0
   31.6672   -3.6121  -17.2555 H   0  0  0  0  0  0  0  0  0  0  0  0
   31.7139   -2.2434  -14.9563 C   0  0  0  0  0  0  0  0  0  0  0  0
   31.7016   -1.2899  -15.8433 N   0  0  0  0  0  0  0  0  0  0  0  0
   32.3648   -1.9809  -13.6534 C   0  0  0  0  0  0  0  0  0  0  0  0
   33.3381   -0.9879  -13.4876 C   0  0  0  0  0  0  0  0  0  0  0  0
   33.8029   -1.0203  -11.8635 S   0  0  0  0  0  0  0  0  0  0  0  0
   32.7558   -2.2624  -11.4631 C   0  0  0  0  0  0  0  0  0  0  0  0
   32.0413   -2.6782  -12.5254 N   0  0  0  0  0  0  0  0  0  0  0  0
   32.6137   -2.8142  -10.1612 N   0  0  0  0  0  0  0  0  0  0  0  0
   33.1625   -2.4721   -9.4189 H   0  0  0  0  0  0  0  0  0  0  0  0
   31.9665   -3.5387  -10.0016 H   0  0  0  0  0  0  0  0  0  0  0  0
   31.1551   -1.4348  -17.0987 O   0  0  0  0  0  0  0  0  0  0  0  0
   30.9656   -0.2988  -17.9229 C   0  0  0  0  0  0  0  0  0  0  0  0
 29 30  1  0  0  0
 30 31  2  0  0  0
 30 28  1  0  0  0
 28 27  1  0  0  0
 27 14  1  0  0  0
 14 15  2  0  0  0
 15 16  1  0  0  0
 15 23  1  0  0  0
 17 16  1  0  0  0
 17 18  1  0  0  0
 17 21  1  0  0  0
 18 19  1  0  0  0
 18 10  1  0  0  0
 19 20  2  0  0  0
 19 16  1  0  0  0
 10 11  1  0  0  0
 11 12  2  0  0  0
 11  8  1  0  0  0
  8  9  2  0  0  0
  8  3  1  0  0  0
  9 32  1  0  0  0
 32 33  1  0  0  0
  3  4  2  0  0  0
  4  5  1  0  0  0
  5  6  1  0  0  0
  6  7  2  0  0  0
  6  1  1  0  0  0
  7  3  1  0  0  0
  1 34  1  0  0  0
 34 35  1  0  0  0
 35 36  2  0  0  0
 36 37  1  0  0  0
 36 44  1  0  0  0
 38 37  1  0  0  0
 38 39  1  0  0  0
 38 42  1  0  0  0
 39 40  1  0  0  0
 39 48  1  0  0  0
 40 41  2  0  0  0
 40 37  1  0  0  0
 48 49  1  0  0  0
 49 50  2  0  0  0
 49 52  1  0  0  0
 52 53  2  0  0  0
 52 54  1  0  0  0
 53 62  1  0  0  0
 62 63  1  0  0  0
 54 55  2  0  0  0
 55 56  1  0  0  0
 56 57  1  0  0  0
 57 58  2  0  0  0
 57 59  1  0  0  0
 58 54  1  0  0  0
 42 43  1  0  0  0
 43 35  1  0  0  0
 44 45  2  0  0  0
 44 46  1  0  0  0
 21 22  1  0  0  0
 22 14  1  0  0  0
 23 24  2  0  0  0
 23 25  1  0  0  0
 10 13  1  0  0  0
  1  2  1  0  0  0
 48 51  1  0  0  0
 59 60  1  0  0  0
 59 61  1  0  0  0
 46 47  1  0  0  0
 25 26  1  0  0  0
M  END
>  <minimizedAffinity>
70.31073

>  <minimizedRMSD>
14.53843

$$$$
MCULE-5190319747 MolPort-005-114-179 PubChem-45227468


 34 37  0  0  0  0  0  0  0  0999 V2000
   29.4901   -3.5256  -27.9431 C   0  0  0  0  0  0  0  0  0  0  0  0
   30.8010   -3.3514  -27.4890 C   0  0  0  0  0  0  0  0  0  0  0  0
   31.2265   -2.0983  -27.0430 C   0  0  0  0  0  0  0  0  0  0  0  0
   30.3486   -1.0087  -27.0423 C   0  0  0  0  0  0  0  0  0  0  0  0
   30.8170    0.2188  -26.5604 O   0  0  0  0  0  0  0  0  0  0  0  0
   30.1094    1.0022  -25.6024 C   0  0  0  0  0  0  0  0  0  0  0  0
   28.8665    1.6367  -26.2028 C   0  0  0  0  0  0  0  0  0  0  0  0
   27.8448    0.6185  -26.4199 N   0  0  0  0  0  0  0  0  0  0  0  0
   28.0995   -0.0250  -27.7013 C   0  0  0  0  0  0  0  0  0  0  0  0
   29.0359   -1.1770  -27.5361 C   0  0  0  0  0  0  0  0  0  0  0  0
   28.6181   -2.4352  -27.9811 C   0  0  0  0  0  0  0  0  0  0  0  0
   29.0268   -4.8569  -28.4300 C   0  0  0  0  0  0  0  0  0  0  0  0
   29.2296   -7.0796  -27.4949 C   0  0  0  0  0  0  0  0  0  0  0  0
   28.8609   -7.9823  -26.3114 C   0  0  0  0  0  0  0  0  0  0  0  0
   27.3511   -7.9823  -26.0696 C   0  0  0  0  0  0  0  0  0  0  0  0
   26.8269   -6.5553  -25.9485 C   0  0  0  0  0  0  0  0  0  0  0  0
   27.2239   -5.7566  -27.1862 C   0  0  0  0  0  0  0  0  0  0  0  0
   28.6819   -5.7193  -27.3038 N   0  0  0  0  0  0  0  0  0  0  0  0
   28.8913   -7.7121  -28.8232 C   0  0  0  0  0  0  0  0  0  0  0  0
   27.6950   -7.9823  -29.1208 O   0  0  0  0  0  0  0  0  0  0  0  0
   30.0922   -7.2354  -30.9164 C   0  0  0  0  0  0  0  0  0  0  0  0
   29.9238   -7.9822  -29.7211 O   0  0  0  0  0  0  0  0  0  0  0  0
   26.5057    1.2270  -26.4189 C   0  0  0  0  0  0  0  0  0  0  0  0
   25.6345    0.8356  -25.2538 C   0  0  0  0  0  0  0  0  0  0  0  0
   25.1495    1.8293  -24.3966 C   0  0  0  0  0  0  0  0  0  0  0  0
   24.3606    1.4917  -23.2919 C   0  0  0  0  0  0  0  0  0  0  0  0
   24.0687    0.1410  -23.0406 C   0  0  0  0  0  0  0  0  0  0  0  0
   24.5628   -0.8556  -23.8863 C   0  0  0  0  0  0  0  0  0  0  0  0
   25.3482   -0.5092  -24.9885 C   0  0  0  0  0  0  0  0  0  0  0  0
   23.8876    2.5130  -22.4606 O   0  0  0  0  0  0  0  0  0  0  0  0
   23.8484    2.4087  -21.0415 C   0  0  0  0  0  0  0  0  0  0  0  0
   22.5128    2.9022  -20.5177 C   0  0  0  0  0  0  0  0  0  0  0  0
   22.4553    2.7099  -19.1385 O   0  0  0  0  0  0  0  0  0  0  0  0
   22.5519    1.7655  -18.9394 H   0  0  0  0  0  0  0  0  0  0  0  0
 21 22  1  0  0  0
 22 19  1  0  0  0
 19 20  2  0  0  0
 13 19  1  0  0  0
 13 14  1  0  0  0
 14 15  1  0  0  0
 15 16  1  0  0  0
 16 17  1  0  0  0
 17 18  1  0  0  0
 18 12  1  0  0  0
 18 13  1  0  0  0
 12  1  1  0  0  0
  1  2  2  0  0  0
  2  3  1  0  0  0
  3  4  2  0  0  0
  4  5  1  0  0  0
  5  6  1  0  0  0
  6  7  1  0  0  0
  7  8  1  0  0  0
  8 23  1  0  0  0
  8  9  1  0  0  0
 23 24  1  0  0  0
 24 25  2  0  0  0
 25 26  1  0  0  0
 26 30  1  0  0  0
 26 27  2  0  0  0
 30 31  1  0  0  0
 31 32  1  0  0  0
 32 33  1  0  0  0
 27 28  1  0  0  0
 28 29  2  0  0  0
 29 24  1  0  0  0
  9 10  1  0  0  0
 10 11  2  0  0  0
 10  4  1  0  0  0
 11  1  1  0  0  0
 33 34  1  0  0  0
M  END
>  <minimizedAffinity>
70.60712

>  <minimizedRMSD>
8.63320

$$$$
MCULE-4094927346 MolPort-047-400-883


 65 67  0  0  0  0  0  0  0  0999 V2000
   30.5391   -9.4749  -22.8832 C   0  0  0  0  0  0  0  0  0  0  0  0
   30.1182   -8.7071  -25.2449 N   0  0  0  0  0  0  0  0  0  0  0  0
   29.7540   -9.5544  -24.1489 C   0  0  0  0  0  0  0  0  0  0  0  0
   28.8001  -10.3735  -24.2482 O   0  0  0  0  0  0  0  0  0  0  0  0
   30.9365   -8.1704  -25.1368 H   0  0  0  0  0  0  0  0  0  0  0  0
   28.0991   -8.3027  -28.9506 C   0  0  0  0  0  0  0  0  0  0  0  0
   27.7853   -7.4386  -27.8975 C   0  0  0  0  0  0  0  0  0  0  0  0
   28.4384   -7.5676  -26.6691 C   0  0  0  0  0  0  0  0  0  0  0  0
   29.4107   -8.5619  -26.4833 C   0  0  0  0  0  0  0  0  0  0  0  0
   29.7219   -9.4223  -27.5425 C   0  0  0  0  0  0  0  0  0  0  0  0
   29.0688   -9.2949  -28.7721 C   0  0  0  0  0  0  0  0  0  0  0  0
   27.4172   -8.1464  -30.2687 C   0  0  0  0  0  0  0  0  0  0  0  0
   26.5507   -7.0160  -30.2551 O   0  0  0  0  0  0  0  0  0  0  0  0
   25.7085   -6.6948  -31.3227 C   0  0  0  0  0  0  0  0  0  0  0  0
   24.9310   -7.5653  -31.8029 O   0  0  0  0  0  0  0  0  0  0  0  0
   25.7733   -5.4044  -31.8659 O   0  0  0  0  0  0  0  0  0  0  0  0
   24.8288   -4.3857  -31.6747 C   0  0  0  0  0  0  0  0  0  0  0  0
   24.2768   -4.0998  -30.4142 C   0  0  0  0  0  0  0  0  0  0  0  0
   23.3504   -3.0644  -30.2666 C   0  0  0  0  0  0  0  0  0  0  0  0
   22.9603   -2.2979  -31.3767 C   0  0  0  0  0  0  0  0  0  0  0  0
   23.5155   -2.5810  -32.6317 C   0  0  0  0  0  0  0  0  0  0  0  0
   24.4440   -3.6156  -32.7777 C   0  0  0  0  0  0  0  0  0  0  0  0
   22.0221   -1.2245  -31.2287 N   0  0  0  0  0  0  0  0  0  0  0  0
   21.2495   -0.8265  -32.2950 O   0  0  0  0  0  0  0  0  0  0  0  0
   21.9111   -0.6239  -30.1393 O   0  0  0  0  0  0  0  0  0  0  0  0
   31.7993   -8.7901  -23.1137 N   0  0  0  0  0  0  0  0  0  0  0  0
   32.9900   -9.1569  -22.4195 C   0  0  0  0  0  0  0  0  0  0  0  0
   33.0048  -10.1658  -21.6624 O   0  0  0  0  0  0  0  0  0  0  0  0
   31.8324   -8.0536  -23.7662 H   0  0  0  0  0  0  0  0  0  0  0  0
   34.2155   -8.3031  -22.5772 C   0  0  0  0  0  0  0  0  0  0  0  0
   34.6319   -7.7378  -21.2982 N   0  0  0  0  0  0  0  0  0  0  0  0
   34.3708   -6.3857  -20.9102 C   0  0  0  0  0  0  0  0  0  0  0  0
   33.7122   -5.6253  -21.6668 O   0  0  0  0  0  0  0  0  0  0  0  0
   35.1185   -8.3176  -20.6687 H   0  0  0  0  0  0  0  0  0  0  0  0
   34.9145   -5.8427  -19.6257 C   0  0  0  0  0  0  0  0  0  0  0  0
   35.9048   -6.7421  -19.0307 N   0  0  0  0  0  0  0  0  0  0  0  0
   35.8338   -7.3563  -17.7563 C   0  0  0  0  0  0  0  0  0  0  0  0
   34.8152   -7.3178  -17.0167 O   0  0  0  0  0  0  0  0  0  0  0  0
   37.0981   -8.0051  -17.4119 C   0  0  0  0  0  0  0  0  0  0  0  0
   37.9448   -7.7977  -18.4254 C   0  0  0  0  0  0  0  0  0  0  0  0
   37.2377   -7.0127  -19.4368 C   0  0  0  0  0  0  0  0  0  0  0  0
   37.7419   -6.6077  -20.5172 O   0  0  0  0  0  0  0  0  0  0  0  0
   35.4837   -4.4448  -19.8417 C   0  0  0  0  0  0  0  0  0  0  0  0
   36.1393   -3.9720  -18.6320 N   0  0  0  0  0  0  0  0  0  0  0  0
   37.3418   -3.2073  -18.6823 C   0  0  0  0  0  0  0  0  0  0  0  0
   37.8414   -2.8872  -19.7956 O   0  0  0  0  0  0  0  0  0  0  0  0
   35.7427   -4.1854  -17.7566 H   0  0  0  0  0  0  0  0  0  0  0  0
   37.9522   -2.8155  -17.4842 O   0  0  0  0  0  0  0  0  0  0  0  0
   39.3634   -2.7745  -17.2707 C   0  0  0  0  0  0  0  0  0  0  0  0
   39.9993   -4.1067  -17.6296 C   0  0  0  0  0  0  0  0  0  0  0  0
   39.9978   -1.6624  -18.0868 C   0  0  0  0  0  0  0  0  0  0  0  0
   39.6233   -2.4962  -15.8066 C   0  0  0  0  0  0  0  0  0  0  0  0
   35.3868   -9.0319  -23.2462 C   0  0  0  0  0  0  0  0  0  0  0  0
   36.2993   -8.0587  -23.9701 C   0  0  0  0  0  0  0  0  0  0  0  0
   34.9374  -10.1345  -24.1929 C   0  0  0  0  0  0  0  0  0  0  0  0
   29.7550   -8.7396  -21.8095 C   0  0  0  0  0  0  0  0  0  0  0  0
   30.1155   -9.2591  -20.4229 C   0  0  0  0  0  0  0  0  0  0  0  0
   30.9172   -8.2264  -19.6398 C   0  0  0  0  0  0  0  0  0  0  0  0
   30.1227   -7.0237  -19.4264 N   0  0  0  0  0  0  0  0  0  0  0  0
   30.5943   -5.9406  -18.6252 C   0  0  0  0  0  0  0  0  0  0  0  0
   31.7243   -5.9985  -18.0708 O   0  0  0  0  0  0  0  0  0  0  0  0
   29.7819   -4.7865  -18.4531 N   0  0  0  0  0  0  0  0  0  0  0  0
   29.2351   -6.9562  -19.8469 H   0  0  0  0  0  0  0  0  0  0  0  0
   28.8984   -4.7377  -18.8847 H   0  0  0  0  0  0  0  0  0  0  0  0
   30.1028   -4.0362  -17.9024 H   0  0  0  0  0  0  0  0  0  0  0  0
 17 18  2  0  0  0
 18 19  1  0  0  0
 19 20  2  0  0  0
 20 23  1  0  0  0
 23 24  1  0  0  0
 23 25  2  0  0  0
 20 21  1  0  0  0
 21 22  2  0  0  0
 17 16  1  0  0  0
 16 14  1  0  0  0
 14 15  2  0  0  0
 14 13  1  0  0  0
 13 12  1  0  0  0
 12  6  1  0  0  0
  6  7  2  0  0  0
  7  8  1  0  0  0
  8  9  2  0  0  0
  9  2  1  0  0  0
  2  3  1  0  0  0
  3  4  2  0  0  0
  3  1  1  0  0  0
  1 56  1  0  0  0
 56 57  1  0  0  0
 57 58  1  0  0  0
 58 59  1  0  0  0
 59 60  1  0  0  0
 60 61  2  0  0  0
 60 62  1  0  0  0
  1 26  1  0  0  0
 26 27  1  0  0  0
 27 28  2  0  0  0
 27 30  1  0  0  0
 30 53  1  0  0  0
 53 54  1  0  0  0
 53 55  1  0  0  0
 30 31  1  0  0  0
 31 32  1  0  0  0
 32 33  2  0  0  0
 32 35  1  0  0  0
 35 43  1  0  0  0
 43 44  1  0  0  0
 44 45  1  0  0  0
 45 48  1  0  0  0
 48 49  1  0  0  0
 49 50  1  0  0  0
 49 51  1  0  0  0
 49 52  1  0  0  0
 45 46  2  0  0  0
 35 36  1  0  0  0
 36 37  1  0  0  0
 37 38  2  0  0  0
 37 39  1  0  0  0
 39 40  2  0  0  0
 40 41  1  0  0  0
 41 42  2  0  0  0
  9 10  1  0  0  0
 10 11  2  0  0  0
 22 17  1  0  0  0
 11  6  1  0  0  0
 41 36  1  0  0  0
  2  5  1  0  0  0
 59 63  1  0  0  0
 62 64  1  0  0  0
 62 65  1  0  0  0
 26 29  1  0  0  0
 31 34  1  0  0  0
 44 47  1  0  0  0
M  CHG 1  23   1
M  CHG 1  24  -1
M  END
>  <minimizedAffinity>
73.14587

>  <minimizedRMSD>
6.02935

$$$$
MCULE-8297132377 CSC088440065


 28 31  0  0  0  0  0  0  0  0999 V2000
   29.3124   -3.4412  -20.2142 C   0  0  0  0  0  0  0  0  0  0  0  0
   28.2156   -2.8655  -20.4413 O   0  0  0  0  0  0  0  0  0  0  0  0
   29.7965   -4.4845  -21.0712 N   0  0  0  0  0  0  0  0  0  0  0  0
   30.6708   -4.8743  -20.8412 H   0  0  0  0  0  0  0  0  0  0  0  0
   29.1392   -5.0187  -22.2283 C   0  0  0  0  0  0  0  0  0  0  0  0
   27.7418   -5.0298  -22.3502 C   0  0  0  0  0  0  0  0  0  0  0  0
   27.1355   -5.5604  -23.4923 C   0  0  0  0  0  0  0  0  0  0  0  0
   27.9165   -6.0867  -24.5254 C   0  0  0  0  0  0  0  0  0  0  0  0
   29.3152   -6.0762  -24.4050 C   0  0  0  0  0  0  0  0  0  0  0  0
   29.9198   -5.5453  -23.2623 C   0  0  0  0  0  0  0  0  0  0  0  0
   27.2809   -6.6102  -25.6560 O   0  0  0  0  0  0  0  0  0  0  0  0
   27.9686   -6.8951  -26.8689 C   0  0  0  0  0  0  0  0  0  0  0  0
   26.9732   -7.2668  -27.9301 C   0  0  0  0  0  0  0  0  0  0  0  0
   27.3491   -8.6185  -27.9126 O   0  0  0  0  0  0  0  0  0  0  0  0
   28.3128   -8.3575  -26.9272 C   0  0  0  0  0  0  0  0  0  0  0  0
   30.1267   -3.0159  -19.0435 C   0  0  0  0  0  0  0  0  0  0  0  0
   30.1363   -4.1090  -17.9891 C   0  0  0  0  0  0  0  0  0  0  0  0
   32.4779   -5.6337  -18.9681 C   0  0  0  0  0  0  0  0  0  0  0  0
   31.0955   -6.1747  -19.1150 C   0  0  0  0  0  0  0  0  0  0  0  0
   30.9293   -7.3879  -19.7194 N   0  0  0  0  0  0  0  0  0  0  0  0
   29.6781   -7.8857  -19.8569 C   0  0  0  0  0  0  0  0  0  0  0  0
   29.3572   -9.0578  -20.4268 N   0  0  0  0  0  0  0  0  0  0  0  0
   28.0015   -9.0578  -20.3017 C   0  0  0  0  0  0  0  0  0  0  0  0
   27.5377   -7.9397  -19.6871 N   0  0  0  0  0  0  0  0  0  0  0  0
   28.6113   -7.2238  -19.4198 N   0  0  0  0  0  0  0  0  0  0  0  0
   28.6876   -6.0153  -18.8096 C   0  0  0  0  0  0  0  0  0  0  0  0
   27.4489   -5.3209  -18.3412 C   0  0  0  0  0  0  0  0  0  0  0  0
   29.9703   -5.4509  -18.6365 C   0  0  0  0  0  0  0  0  0  0  0  0
 18 19  1  0  0  0
 19 20  2  0  0  0
 20 21  1  0  0  0
 21 22  2  0  0  0
 22 23  1  0  0  0
 23 24  2  0  0  0
 24 25  1  0  0  0
 25 26  1  0  0  0
 26 27  1  0  0  0
 26 28  2  0  0  0
 28 17  1  0  0  0
 17 16  1  0  0  0
 16  1  1  0  0  0
  1  2  2  0  0  0
  1  3  1  0  0  0
  3  5  1  0  0  0
  5  6  2  0  0  0
  6  7  1  0  0  0
  7  8  2  0  0  0
  8 11  1  0  0  0
 11 12  1  0  0  0
 12 13  1  0  0  0
 13 14  1  0  0  0
 14 15  1  0  0  0
  8  9  1  0  0  0
  9 10  2  0  0  0
 28 19  1  0  0  0
 10  5  1  0  0  0
 25 21  1  0  0  0
 15 12  1  0  0  0
  3  4  1  0  0  0
M  END
>  <minimizedAffinity>
76.48094

>  <minimizedRMSD>
5.09715

$$$$
MCULE-8297132377 CSC088440065


 28 31  0  0  0  0  0  0  0  0999 V2000
   29.2833   -3.4293  -20.3099 C   0  0  0  0  0  0  0  0  0  0  0  0
   28.1907   -2.8540  -20.5570 O   0  0  0  0  0  0  0  0  0  0  0  0
   29.7715   -4.4892  -21.1440 N   0  0  0  0  0  0  0  0  0  0  0  0
   30.6422   -4.8779  -20.8991 H   0  0  0  0  0  0  0  0  0  0  0  0
   29.1229   -5.0413  -22.2977 C   0  0  0  0  0  0  0  0  0  0  0  0
   29.9120   -5.5623  -23.3280 C   0  0  0  0  0  0  0  0  0  0  0  0
   29.3160   -6.1102  -24.4672 C   0  0  0  0  0  0  0  0  0  0  0  0
   27.9177   -6.1436  -24.5877 C   0  0  0  0  0  0  0  0  0  0  0  0
   27.1283   -5.6228  -23.5583 C   0  0  0  0  0  0  0  0  0  0  0  0
   27.7258   -5.0752  -22.4197 C   0  0  0  0  0  0  0  0  0  0  0  0
   27.2907   -6.6844  -25.7149 O   0  0  0  0  0  0  0  0  0  0  0  0
   27.9639   -6.8908  -26.9516 C   0  0  0  0  0  0  0  0  0  0  0  0
   26.9713   -7.3200  -27.9933 C   0  0  0  0  0  0  0  0  0  0  0  0
   27.4529   -8.6378  -28.0146 O   0  0  0  0  0  0  0  0  0  0  0  0
   28.4206   -8.3199  -27.0501 C   0  0  0  0  0  0  0  0  0  0  0  0
   30.0883   -2.9864  -19.1393 C   0  0  0  0  0  0  0  0  0  0  0  0
   30.0746   -4.0561  -18.0611 C   0  0  0  0  0  0  0  0  0  0  0  0
   32.4371   -5.5974  -18.9608 C   0  0  0  0  0  0  0  0  0  0  0  0
   31.0587   -6.1439  -19.1229 C   0  0  0  0  0  0  0  0  0  0  0  0
   30.9061   -7.3702  -19.7038 N   0  0  0  0  0  0  0  0  0  0  0  0
   29.6586   -7.8733  -19.8551 C   0  0  0  0  0  0  0  0  0  0  0  0
   29.3506   -9.0580  -20.4057 N   0  0  0  0  0  0  0  0  0  0  0  0
   27.9927   -9.0578  -20.3071 C   0  0  0  0  0  0  0  0  0  0  0  0
   27.5153   -7.9275  -19.7262 N   0  0  0  0  0  0  0  0  0  0  0  0
   28.5824   -7.2040  -19.4535 N   0  0  0  0  0  0  0  0  0  0  0  0
   28.6451   -5.9823  -18.8684 C   0  0  0  0  0  0  0  0  0  0  0  0
   27.3964   -5.2803  -18.4395 C   0  0  0  0  0  0  0  0  0  0  0  0
   29.9233   -5.4119  -18.6824 C   0  0  0  0  0  0  0  0  0  0  0  0
 18 19  1  0  0  0
 19 20  2  0  0  0
 20 21  1  0  0  0
 21 22  2  0  0  0
 22 23  1  0  0  0
 23 24  2  0  0  0
 24 25  1  0  0  0
 25 26  1  0  0  0
 26 27  1  0  0  0
 26 28  2  0  0  0
 28 17  1  0  0  0
 17 16  1  0  0  0
 16  1  1  0  0  0
  1  2  2  0  0  0
  1  3  1  0  0  0
  3  5  1  0  0  0
  5  6  2  0  0  0
  6  7  1  0  0  0
  7  8  2  0  0  0
  8 11  1  0  0  0
 11 12  1  0  0  0
 12 13  1  0  0  0
 13 14  1  0  0  0
 14 15  1  0  0  0
  8  9  1  0  0  0
  9 10  2  0  0  0
 28 19  1  0  0  0
 10  5  1  0  0  0
 25 21  1  0  0  0
 15 12  1  0  0  0
  3  4  1  0  0  0
M  END
>  <minimizedAffinity>
76.50089

>  <minimizedRMSD>
5.10743

$$$$
MCULE-7866820332 PubChem-102402583


 54 57  0  0  0  0  0  0  0  0999 V2000
   30.4443    1.3251  -25.7818 C   0  0  0  0  0  0  0  0  0  0  0  0
   31.2146    1.8277  -27.0008 C   0  0  0  0  0  0  0  0  0  0  0  0
   32.0929    2.8447  -26.6247 O   0  0  0  0  0  0  0  0  0  0  0  0
   31.5902    3.5813  -26.2431 H   0  0  0  0  0  0  0  0  0  0  0  0
   29.1123    0.6793  -26.1984 C   0  0  0  0  0  0  0  0  0  0  0  0
   29.5372   -3.3988  -27.5361 C   0  0  0  0  0  0  0  0  0  0  0  0
   28.3259   -2.6965  -27.7670 C   0  0  0  0  0  0  0  0  0  0  0  0
   28.2048   -1.3759  -27.3187 C   0  0  0  0  0  0  0  0  0  0  0  0
   29.2561   -0.7412  -26.6531 C   0  0  0  0  0  0  0  0  0  0  0  0
   30.4484   -1.4307  -26.4272 C   0  0  0  0  0  0  0  0  0  0  0  0
   30.5864   -2.7479  -26.8639 C   0  0  0  0  0  0  0  0  0  0  0  0
   27.2183   -3.2466  -28.4295 O   0  0  0  0  0  0  0  0  0  0  0  0
   27.1656   -3.5402  -29.8191 C   0  0  0  0  0  0  0  0  0  0  0  0
   29.6853   -4.7268  -27.9699 O   0  0  0  0  0  0  0  0  0  0  0  0
   25.4855   -5.9394  -26.2853 C   0  0  0  0  0  0  0  0  0  0  0  0
   26.6051   -6.2999  -27.2440 C   0  0  0  0  0  0  0  0  0  0  0  0
   26.9357   -7.7992  -27.1614 C   0  0  0  0  0  0  0  0  0  0  0  0
   28.0251   -8.1318  -28.1837 C   0  0  0  0  0  0  0  0  0  0  0  0
   29.1814   -7.1245  -28.0919 C   0  0  0  0  0  0  0  0  0  0  0  0
   28.6302   -5.6888  -28.0451 C   0  0  0  0  0  0  0  0  0  0  0  0
   27.7466   -5.5273  -26.9597 O   0  0  0  0  0  0  0  0  0  0  0  0
   30.0488   -7.2778  -29.1748 O   0  0  0  0  0  0  0  0  0  0  0  0
   27.4725   -8.1292  -29.4680 O   0  0  0  0  0  0  0  0  0  0  0  0
   27.3775   -8.1315  -25.8776 O   0  0  0  0  0  0  0  0  0  0  0  0
   29.5677   -7.1112  -30.0005 H   0  0  0  0  0  0  0  0  0  0  0  0
   27.1144   -7.2493  -29.6641 H   0  0  0  0  0  0  0  0  0  0  0  0
   28.1788   -7.6256  -25.6704 H   0  0  0  0  0  0  0  0  0  0  0  0
   30.2555    2.4281  -24.7253 C   0  0  0  0  0  0  0  0  0  0  0  0
   30.6123    3.8107  -25.2692 C   0  0  0  0  0  0  0  0  0  0  0  0
   29.5930    4.2724  -26.1023 O   0  0  0  0  0  0  0  0  0  0  0  0
   29.4804    3.6593  -26.8455 H   0  0  0  0  0  0  0  0  0  0  0  0
   31.0151    2.1347  -23.4195 C   0  0  0  0  0  0  0  0  0  0  0  0
   30.2712    2.5418  -22.1831 C   0  0  0  0  0  0  0  0  0  0  0  0
   29.2960    1.7116  -21.6279 C   0  0  0  0  0  0  0  0  0  0  0  0
   28.5829    2.0975  -20.4790 C   0  0  0  0  0  0  0  0  0  0  0  0
   28.8609    3.3560  -19.8827 C   0  0  0  0  0  0  0  0  0  0  0  0
   29.8270    4.1830  -20.4673 C   0  0  0  0  0  0  0  0  0  0  0  0
   30.5259    3.7844  -21.6068 C   0  0  0  0  0  0  0  0  0  0  0  0
   27.6113    1.2441  -19.9483 O   0  0  0  0  0  0  0  0  0  0  0  0
   26.3653    0.9965  -20.5858 C   0  0  0  0  0  0  0  0  0  0  0  0
   28.2257    3.8634  -18.7334 O   0  0  0  0  0  0  0  0  0  0  0  0
   28.1510    3.2790  -17.4323 C   0  0  0  0  0  0  0  0  0  0  0  0
   29.4865    3.3335  -16.6873 C   0  0  0  0  0  0  0  0  0  0  0  0
   29.5791    2.3105  -15.5449 C   0  0  0  0  0  0  0  0  0  0  0  0
   28.2731    1.5908  -15.1645 C   0  0  0  0  0  0  0  0  0  0  0  0
   27.1349    1.7544  -16.1820 C   0  0  0  0  0  0  0  0  0  0  0  0
   27.6266    1.9816  -17.4744 O   0  0  0  0  0  0  0  0  0  0  0  0
   26.2641    0.5137  -16.1779 C   0  0  0  0  0  0  0  0  0  0  0  0
   27.8449    2.0364  -13.9136 O   0  0  0  0  0  0  0  0  0  0  0  0
   30.5598    1.3657  -15.8429 O   0  0  0  0  0  0  0  0  0  0  0  0
   29.6890    4.6182  -16.1843 O   0  0  0  0  0  0  0  0  0  0  0  0
   27.6419    2.9837  -13.9599 H   0  0  0  0  0  0  0  0  0  0  0  0
   30.2952    0.8617  -16.6282 H   0  0  0  0  0  0  0  0  0  0  0  0
   28.9895    4.8297  -15.5465 H   0  0  0  0  0  0  0  0  0  0  0  0
 16 15  1  0  0  0
 16 17  1  0  0  0
 17 18  1  0  0  0
 18 19  1  0  0  0
 19 20  1  0  0  0
 20 21  1  0  0  0
 20 14  1  0  0  0
 14  6  1  0  0  0
  6  7  2  0  0  0
  7  8  1  0  0  0
  8  9  2  0  0  0
  9 10  1  0  0  0
 10 11  2  0  0  0
  9  5  1  0  0  0
  1  5  1  0  0  0
  1  2  1  0  0  0
  2  3  1  0  0  0
  1 28  1  0  0  0
 28 32  1  0  0  0
 32 33  1  0  0  0
 33 34  2  0  0  0
 34 35  1  0  0  0
 35 36  2  0  0  0
 36 37  1  0  0  0
 37 38  2  0  0  0
 36 41  1  0  0  0
 42 41  1  0  0  0
 42 43  1  0  0  0
 43 44  1  0  0  0
 44 45  1  0  0  0
 45 46  1  0  0  0
 46 47  1  0  0  0
 46 48  1  0  0  0
 45 49  1  0  0  0
 44 50  1  0  0  0
 43 51  1  0  0  0
 35 39  1  0  0  0
 39 40  1  0  0  0
 28 29  1  0  0  0
 29 30  1  0  0  0
  7 12  1  0  0  0
 12 13  1  0  0  0
 19 22  1  0  0  0
 18 23  1  0  0  0
 17 24  1  0  0  0
 21 16  1  0  0  0
 11  6  1  0  0  0
 38 33  1  0  0  0
 47 42  1  0  0  0
  3  4  1  0  0  0
 49 52  1  0  0  0
 50 53  1  0  0  0
 51 54  1  0  0  0
 30 31  1  0  0  0
 22 25  1  0  0  0
 23 26  1  0  0  0
 24 27  1  0  0  0
M  END
>  <minimizedAffinity>
76.74162

>  <minimizedRMSD>
10.93419

$$$$
MCULE-1813141546 MolPort-046-594-400 PubChem-75183056


 50 53  0  0  0  0  0  0  0  0999 V2000
   27.9740   -7.4117  -25.9827 C   0  0  0  0  0  0  0  0  0  0  0  0
   29.1883   -7.4439  -26.5304 C   0  0  0  0  0  0  0  0  0  0  0  0
   27.3097   -7.9004  -21.7733 C   0  0  0  0  0  0  0  0  0  0  0  0
   26.2670   -8.0988  -22.6828 C   0  0  0  0  0  0  0  0  0  0  0  0
   26.4767   -7.9236  -24.0546 C   0  0  0  0  0  0  0  0  0  0  0  0
   25.4183   -8.1242  -24.9339 O   0  0  0  0  0  0  0  0  0  0  0  0
   27.7494   -7.5609  -24.5335 C   0  0  0  0  0  0  0  0  0  0  0  0
   28.7927   -7.3481  -23.6181 C   0  0  0  0  0  0  0  0  0  0  0  0
   28.5727   -7.5138  -22.2474 C   0  0  0  0  0  0  0  0  0  0  0  0
   24.5749   -8.3655  -24.6045 H   0  0  0  0  0  0  0  0  0  0  0  0
   27.0767   -8.1279  -20.4141 O   0  0  0  0  0  0  0  0  0  0  0  0
   30.2272   -7.6622  -18.9569 C   0  0  0  0  0  0  0  0  0  0  0  0
   29.2969   -7.6422  -20.0090 O   0  0  0  0  0  0  0  0  0  0  0  0
   28.0399   -7.8368  -19.4115 C   0  0  0  0  0  0  0  0  0  0  0  0
   27.6020   -6.5997  -18.6170 C   0  0  0  0  0  0  0  0  0  0  0  0
   26.9735   -7.0040  -17.4376 O   0  0  0  0  0  0  0  0  0  0  0  0
   28.7723   -5.6641  -18.2895 C   0  0  0  0  0  0  0  0  0  0  0  0
   28.9209   -4.7313  -19.3200 O   0  0  0  0  0  0  0  0  0  0  0  0
   30.0984   -6.4082  -18.0751 C   0  0  0  0  0  0  0  0  0  0  0  0
   30.2221   -6.7728  -16.7330 O   0  0  0  0  0  0  0  0  0  0  0  0
   27.6010   -7.5029  -16.8914 H   0  0  0  0  0  0  0  0  0  0  0  0
   29.1335   -5.1931  -20.1461 H   0  0  0  0  0  0  0  0  0  0  0  0
   29.5042   -7.3804  -16.4956 H   0  0  0  0  0  0  0  0  0  0  0  0
   32.2390   -6.5125  -19.5344 O   0  0  0  0  0  0  0  0  0  0  0  0
   31.6330   -7.7684  -19.5221 C   0  0  0  0  0  0  0  0  0  0  0  0
   33.1356   -6.5896  -19.8965 H   0  0  0  0  0  0  0  0  0  0  0  0
   29.4130   -7.3052  -27.9755 C   0  0  0  0  0  0  0  0  0  0  0  0
   30.6167   -7.7659  -28.5133 C   0  0  0  0  0  0  0  0  0  0  0  0
   30.8566   -7.6652  -29.8837 C   0  0  0  0  0  0  0  0  0  0  0  0
   32.0511   -8.1277  -30.4124 O   0  0  0  0  0  0  0  0  0  0  0  0
   29.8937   -7.0993  -30.7218 C   0  0  0  0  0  0  0  0  0  0  0  0
   28.6833   -6.6267  -30.1958 C   0  0  0  0  0  0  0  0  0  0  0  0
   28.4499   -6.7341  -28.8227 C   0  0  0  0  0  0  0  0  0  0  0  0
   32.6969   -8.5073  -29.8495 H   0  0  0  0  0  0  0  0  0  0  0  0
   27.6962   -6.0493  -31.0083 O   0  0  0  0  0  0  0  0  0  0  0  0
   26.3132   -5.9604  -30.6647 C   0  0  0  0  0  0  0  0  0  0  0  0
   25.8545   -7.1828  -30.1294 O   0  0  0  0  0  0  0  0  0  0  0  0
   24.6057   -6.9742  -29.4879 C   0  0  0  0  0  0  0  0  0  0  0  0
   23.5958   -6.1631  -30.3219 C   0  0  0  0  0  0  0  0  0  0  0  0
   22.3276   -6.7425  -30.2389 O   0  0  0  0  0  0  0  0  0  0  0  0
   24.0373   -6.0454  -31.7841 C   0  0  0  0  0  0  0  0  0  0  0  0
   23.9618   -7.2887  -32.4148 O   0  0  0  0  0  0  0  0  0  0  0  0
   25.4705   -5.5143  -31.8704 C   0  0  0  0  0  0  0  0  0  0  0  0
   25.4508   -4.1205  -31.9262 O   0  0  0  0  0  0  0  0  0  0  0  0
   22.3579   -7.6404  -30.6045 H   0  0  0  0  0  0  0  0  0  0  0  0
   24.5559   -7.9134  -31.9701 H   0  0  0  0  0  0  0  0  0  0  0  0
   25.0453   -3.7702  -31.1177 H   0  0  0  0  0  0  0  0  0  0  0  0
   24.7783   -6.3697  -28.1014 C   0  0  0  0  0  0  0  0  0  0  0  0
   25.9784   -6.8053  -27.5395 O   0  0  0  0  0  0  0  0  0  0  0  0
   25.9682   -7.7723  -27.4649 H   0  0  0  0  0  0  0  0  0  0  0  0
 24 25  1  0  0  0
 25 12  1  0  0  0
 12 13  1  0  0  0
 13 14  1  0  0  0
 14 11  1  0  0  0
 11  3  1  0  0  0
  3  4  2  0  0  0
  4  5  1  0  0  0
  5  6  1  0  0  0
  5  7  2  0  0  0
  7  1  1  0  0  0
  1  2  2  0  0  0
  2 27  1  0  0  0
 27 28  2  0  0  0
 28 29  1  0  0  0
 29 30  1  0  0  0
 29 31  2  0  0  0
 31 32  1  0  0  0
 32 35  1  0  0  0
 35 36  1  0  0  0
 36 37  1  0  0  0
 37 38  1  0  0  0
 38 48  1  0  0  0
 48 49  1  0  0  0
 38 39  1  0  0  0
 39 40  1  0  0  0
 39 41  1  0  0  0
 41 42  1  0  0  0
 41 43  1  0  0  0
 43 44  1  0  0  0
 32 33  2  0  0  0
  7  8  1  0  0  0
  8  9  2  0  0  0
 14 15  1  0  0  0
 15 16  1  0  0  0
 15 17  1  0  0  0
 17 18  1  0  0  0
 17 19  1  0  0  0
 19 20  1  0  0  0
 19 12  1  0  0  0
  9  3  1  0  0  0
 33 27  1  0  0  0
 43 36  1  0  0  0
 24 26  1  0  0  0
  6 10  1  0  0  0
 30 34  1  0  0  0
 49 50  1  0  0  0
 40 45  1  0  0  0
 42 46  1  0  0  0
 44 47  1  0  0  0
 16 21  1  0  0  0
 18 22  1  0  0  0
 20 23  1  0  0  0
M  END
>  <minimizedAffinity>
78.72706

>  <minimizedRMSD>
12.84733

$$$$
MCULE-7806844578


 55 58  0  0  0  0  0  0  0  0999 V2000
   28.8794   -6.6485  -19.2813 C   0  0  0  0  0  0  0  0  0  0  0  0
   27.0207   -7.5644  -22.4641 C   0  0  0  0  0  0  0  0  0  0  0  0
   27.6316   -7.6489  -21.2047 C   0  0  0  0  0  0  0  0  0  0  0  0
   28.2695   -6.5434  -20.6392 C   0  0  0  0  0  0  0  0  0  0  0  0
   28.2975   -5.3313  -21.3291 C   0  0  0  0  0  0  0  0  0  0  0  0
   27.6969   -5.2301  -22.5830 C   0  0  0  0  0  0  0  0  0  0  0  0
   27.0510   -6.3325  -23.1639 C   0  0  0  0  0  0  0  0  0  0  0  0
   26.3579   -8.7781  -22.9940 C   0  0  0  0  0  0  0  0  0  0  0  0
   25.2717   -9.3242  -22.3219 O   0  0  0  0  0  0  0  0  0  0  0  0
   26.7488   -9.3242  -24.0573 O   0  0  0  0  0  0  0  0  0  0  0  0
   24.9661   -8.9311  -21.5281 H   0  0  0  0  0  0  0  0  0  0  0  0
   26.4844   -6.2271  -24.4790 N   0  0  0  0  0  0  0  0  0  0  0  0
   25.1490   -5.8145  -24.8017 C   0  0  0  0  0  0  0  0  0  0  0  0
   24.2748   -5.6900  -23.9036 O   0  0  0  0  0  0  0  0  0  0  0  0
   27.0708   -6.4612  -25.2344 H   0  0  0  0  0  0  0  0  0  0  0  0
   24.7850   -5.4994  -26.2133 C   0  0  0  0  0  0  0  0  0  0  0  0
   24.7500   -7.0054  -27.2344 S   0  0  0  0  0  0  0  0  0  0  0  0
   26.5162   -6.9470  -27.5051 C   0  0  0  0  0  0  0  0  0  0  0  0
   27.2523   -8.0871  -27.4329 N   0  0  0  0  0  0  0  0  0  0  0  0
   28.5972   -8.0633  -27.6233 C   0  0  0  0  0  0  0  0  0  0  0  0
   29.2403   -6.8540  -27.8868 C   0  0  0  0  0  0  0  0  0  0  0  0
   28.4679   -5.6948  -27.9595 C   0  0  0  0  0  0  0  0  0  0  0  0
   29.0727   -4.4732  -28.2193 O   0  0  0  0  0  0  0  0  0  0  0  0
   27.1244   -5.7604  -27.7684 N   0  0  0  0  0  0  0  0  0  0  0  0
   29.9992   -4.4278  -28.3511 H   0  0  0  0  0  0  0  0  0  0  0  0
   29.3861   -9.3242  -27.5077 C   0  0  0  0  0  0  0  0  0  0  0  0
   30.5024   -9.1801  -26.4839 C   0  0  0  0  0  0  0  0  0  0  0  0
   29.9615   -9.3240  -25.0737 C   0  0  0  0  0  0  0  0  0  0  0  0
   28.8333   -5.3307  -18.5841 C   0  0  0  0  0  0  0  0  0  0  0  0
   27.7842   -4.4447  -18.8266 C   0  0  0  0  0  0  0  0  0  0  0  0
   27.7727   -3.1941  -18.2089 C   0  0  0  0  0  0  0  0  0  0  0  0
   28.8049   -2.8116  -17.3377 C   0  0  0  0  0  0  0  0  0  0  0  0
   29.8699   -3.7108  -17.0886 C   0  0  0  0  0  0  0  0  0  0  0  0
   29.8692   -4.9609  -17.7246 C   0  0  0  0  0  0  0  0  0  0  0  0
   28.8284   -1.4904  -16.7781 N   0  0  0  0  0  0  0  0  0  0  0  0
   27.6998   -0.6629  -16.4651 C   0  0  0  0  0  0  0  0  0  0  0  0
   26.5432   -1.1541  -16.3933 O   0  0  0  0  0  0  0  0  0  0  0  0
   29.7166   -1.1105  -16.5884 H   0  0  0  0  0  0  0  0  0  0  0  0
   27.8722    0.8114  -16.2682 C   0  0  0  0  0  0  0  0  0  0  0  0
   29.5184    1.3990  -16.7908 S   0  0  0  0  0  0  0  0  0  0  0  0
   29.0798    1.3774  -18.5262 C   0  0  0  0  0  0  0  0  0  0  0  0
   30.0378    1.5683  -19.4699 N   0  0  0  0  0  0  0  0  0  0  0  0
   29.7319    1.5504  -20.7933 C   0  0  0  0  0  0  0  0  0  0  0  0
   28.4152    1.3305  -21.1987 C   0  0  0  0  0  0  0  0  0  0  0  0
   27.4422    1.1467  -20.2154 C   0  0  0  0  0  0  0  0  0  0  0  0
   26.1199    0.9316  -20.5802 O   0  0  0  0  0  0  0  0  0  0  0  0
   27.7888    1.1741  -18.9010 N   0  0  0  0  0  0  0  0  0  0  0  0
   25.8809    0.9128  -21.4860 H   0  0  0  0  0  0  0  0  0  0  0  0
   30.8124    1.7187  -21.8040 C   0  0  0  0  0  0  0  0  0  0  0  0
   32.1502    1.8860  -21.1074 C   0  0  0  0  0  0  0  0  0  0  0  0
   33.2162    1.1327  -21.8730 C   0  0  0  0  0  0  0  0  0  0  0  0
   30.9962   -3.3874  -16.1811 C   0  0  0  0  0  0  0  0  0  0  0  0
   30.9014   -2.3562  -15.2548 O   0  0  0  0  0  0  0  0  0  0  0  0
   32.0564   -4.0666  -16.2244 O   0  0  0  0  0  0  0  0  0  0  0  0
   30.1212   -1.8396  -15.2070 H   0  0  0  0  0  0  0  0  0  0  0  0
  2  3  2  0  0  0
  3  4  1  0  0  0
  4  5  2  0  0  0
  5  6  1  0  0  0
  6  7  2  0  0  0
  7 12  1  0  0  0
 12 13  1  0  0  0
 13 16  1  0  0  0
 16 17  1  0  0  0
 17 18  1  0  0  0
 18 19  2  0  0  0
 19 20  1  0  0  0
 20 26  1  0  0  0
 26 27  1  0  0  0
 27 28  1  0  0  0
 20 21  2  0  0  0
 21 22  1  0  0  0
 22 23  1  0  0  0
 22 24  2  0  0  0
 13 14  2  0  0  0
  4  1  1  0  0  0
  1 29  1  0  0  0
 29 30  2  0  0  0
 30 31  1  0  0  0
 31 32  2  0  0  0
 32 33  1  0  0  0
 33 52  1  0  0  0
 52 53  1  0  0  0
 52 54  2  0  0  0
 33 34  2  0  0  0
 32 35  1  0  0  0
 35 36  1  0  0  0
 36 39  1  0  0  0
 39 40  1  0  0  0
 40 41  1  0  0  0
 41 42  2  0  0  0
 42 43  1  0  0  0
 43 49  1  0  0  0
 49 50  1  0  0  0
 50 51  1  0  0  0
 43 44  2  0  0  0
 44 45  1  0  0  0
 45 46  1  0  0  0
 45 47  2  0  0  0
 36 37  2  0  0  0
  2  8  1  0  0  0
  8  9  1  0  0  0
  8 10  2  0  0  0
  7  2  1  0  0  0
 24 18  1  0  0  0
 34 29  1  0  0  0
 47 41  1  0  0  0
 12 15  1  0  0  0
 23 25  1  0  0  0
 53 55  1  0  0  0
 35 38  1  0  0  0
 46 48  1  0  0  0
  9 11  1  0  0  0
M  END
>  <minimizedAffinity>
79.22078

>  <minimizedRMSD>
5.74373

$$$$
MCULE-7411460578 CSC028172818 LN01403923 MolPort-002-457-697 PubChem-3507062


 38 41  0  0  0  0  0  0  0  0999 V2000
   27.2882   -4.7951  -21.8259 C   0  0  0  0  0  0  0  0  0  0  0  0
   27.1279   -5.9867  -22.2896 N   0  0  0  0  0  0  0  0  0  0  0  0
   26.8105   -5.9287  -23.6432 N   0  0  0  0  0  0  0  0  0  0  0  0
   26.7241   -4.5533  -24.1069 C   0  0  0  0  0  0  0  0  0  0  0  0
   27.0673   -3.7326  -22.8597 C   0  0  0  0  0  0  0  0  0  0  0  0
   28.8789   -5.1120  -18.4093 C   0  0  0  0  0  0  0  0  0  0  0  0
   28.3109   -4.0139  -17.7481 C   0  0  0  0  0  0  0  0  0  0  0  0
   27.4145   -3.1765  -18.4167 C   0  0  0  0  0  0  0  0  0  0  0  0
   27.0809   -3.4327  -19.7490 C   0  0  0  0  0  0  0  0  0  0  0  0
   27.6407   -4.5277  -20.4214 C   0  0  0  0  0  0  0  0  0  0  0  0
   28.5403   -5.3630  -19.7426 C   0  0  0  0  0  0  0  0  0  0  0  0
   29.8014   -5.9832  -17.7499 N   0  0  0  0  0  0  0  0  0  0  0  0
   29.4427   -6.7730  -17.2843 H   0  0  0  0  0  0  0  0  0  0  0  0
   31.5159   -5.7270  -17.7241 S   0  0  0  0  0  0  0  0  0  0  0  0
   31.8125   -4.3572  -17.1825 O   0  0  0  0  0  0  0  0  0  0  0  0
   32.1516   -6.7541  -16.8304 O   0  0  0  0  0  0  0  0  0  0  0  0
   31.6889   -7.1644  -20.0091 C   0  0  0  0  0  0  0  0  0  0  0  0
   32.1864   -5.8857  -19.3661 C   0  0  0  0  0  0  0  0  0  0  0  0
   27.7105   -4.2959  -25.2053 C   0  0  0  0  0  0  0  0  0  0  0  0
   28.9524   -3.6970  -24.9453 C   0  0  0  0  0  0  0  0  0  0  0  0
   29.8695   -3.5049  -25.9812 C   0  0  0  0  0  0  0  0  0  0  0  0
   29.5534   -3.9153  -27.2788 C   0  0  0  0  0  0  0  0  0  0  0  0
   28.3154   -4.5165  -27.5514 C   0  0  0  0  0  0  0  0  0  0  0  0
   27.3979   -4.6994  -26.5073 C   0  0  0  0  0  0  0  0  0  0  0  0
   27.9945   -4.9561  -28.8777 N   0  0  0  0  0  0  0  0  0  0  0  0
   26.6963   -5.2686  -29.2104 O   0  0  0  0  0  0  0  0  0  0  0  0
   28.8900   -5.0811  -29.7389 O   0  0  0  0  0  0  0  0  0  0  0  0
   26.1949   -7.2952  -24.5104 S   0  0  0  0  0  0  0  0  0  0  0  0
   26.0972   -8.4763  -23.5860 O   0  0  0  0  0  0  0  0  0  0  0  0
   24.8241   -6.9753  -25.0374 O   0  0  0  0  0  0  0  0  0  0  0  0
   27.2708   -7.6983  -25.8367 C   0  0  0  0  0  0  0  0  0  0  0  0
   26.7952   -7.7039  -27.1522 C   0  0  0  0  0  0  0  0  0  0  0  0
   27.6680   -7.9667  -28.2114 C   0  0  0  0  0  0  0  0  0  0  0  0
   29.0264   -8.2229  -27.9621 C   0  0  0  0  0  0  0  0  0  0  0  0
   29.4948   -8.2221  -26.6439 C   0  0  0  0  0  0  0  0  0  0  0  0
   28.6216   -7.9592  -25.5848 C   0  0  0  0  0  0  0  0  0  0  0  0
   29.9270   -8.4763  -29.0000 O   0  0  0  0  0  0  0  0  0  0  0  0
   29.5478   -8.4467  -30.3693 C   0  0  0  0  0  0  0  0  0  0  0  0
 17 18  1  0  0  0
 18 14  1  0  0  0
 14 15  2  0  0  0
 14 16  2  0  0  0
 14 12  1  0  0  0
 12  6  1  0  0  0
  6  7  2  0  0  0
  7  8  1  0  0  0
  8  9  2  0  0  0
  9 10  1  0  0  0
 10 11  2  0  0  0
 10  1  1  0  0  0
 11  6  1  0  0  0
  1  2  2  0  0  0
  2  3  1  0  0  0
  3  4  1  0  0  0
  3 28  1  0  0  0
  4  5  1  0  0  0
  4 19  1  0  0  0
  5  1  1  0  0  0
 19 20  2  0  0  0
 20 21  1  0  0  0
 21 22  2  0  0  0
 22 23  1  0  0  0
 23 24  2  0  0  0
 23 25  1  0  0  0
 24 19  1  0  0  0
 25 26  1  0  0  0
 25 27  2  0  0  0
 28 29  2  0  0  0
 28 30  2  0  0  0
 28 31  1  0  0  0
 31 32  2  0  0  0
 32 33  1  0  0  0
 33 34  2  0  0  0
 34 37  1  0  0  0
 34 35  1  0  0  0
 37 38  1  0  0  0
 35 36  2  0  0  0
 36 31  1  0  0  0
 12 13  1  0  0  0
M  CHG 1  25   1
M  CHG 1  26  -1
M  END
>  <minimizedAffinity>
80.60405

>  <minimizedRMSD>
4.91705

$$$$
MCULE-6372514264 CSC028169046 MolPort-009-649-018 PubChem-45837634


 36 39  0  0  0  0  0  0  0  0999 V2000
   27.2933   -4.6941  -22.8411 C   0  0  0  0  0  0  0  0  0  0  0  0
   27.2172   -5.2111  -21.6633 N   0  0  0  0  0  0  0  0  0  0  0  0
   27.9522   -4.4464  -20.7624 N   0  0  0  0  0  0  0  0  0  0  0  0
   28.6029   -3.3285  -21.4265 C   0  0  0  0  0  0  0  0  0  0  0  0
   28.1511   -3.4656  -22.8841 C   0  0  0  0  0  0  0  0  0  0  0  0
   26.6612   -6.6409  -26.0210 C   0  0  0  0  0  0  0  0  0  0  0  0
   25.3000   -6.3767  -26.2292 C   0  0  0  0  0  0  0  0  0  0  0  0
   24.5961   -5.5659  -25.3360 C   0  0  0  0  0  0  0  0  0  0  0  0
   25.2484   -5.0152  -24.2300 C   0  0  0  0  0  0  0  0  0  0  0  0
   26.6086   -5.2717  -24.0099 C   0  0  0  0  0  0  0  0  0  0  0  0
   27.3078   -6.0871  -24.9117 C   0  0  0  0  0  0  0  0  0  0  0  0
   27.4060   -7.4679  -26.9192 N   0  0  0  0  0  0  0  0  0  0  0  0
   27.2071   -8.4319  -26.9358 H   0  0  0  0  0  0  0  0  0  0  0  0
   28.2730   -7.3360  -29.6560 C   0  0  0  0  0  0  0  0  0  0  0  0
   28.6390   -6.8695  -27.9801 S   0  0  0  0  0  0  0  0  0  0  0  0
   29.9595   -7.4656  -27.5835 O   0  0  0  0  0  0  0  0  0  0  0  0
   28.7227   -5.3734  -27.8697 O   0  0  0  0  0  0  0  0  0  0  0  0
   28.1490   -2.0234  -20.8463 C   0  0  0  0  0  0  0  0  0  0  0  0
   26.7859   -1.7179  -20.7155 C   0  0  0  0  0  0  0  0  0  0  0  0
   26.3900   -0.5099  -20.1370 C   0  0  0  0  0  0  0  0  0  0  0  0
   27.3521    0.3948  -19.6809 C   0  0  0  0  0  0  0  0  0  0  0  0
   28.7172    0.1008  -19.8040 C   0  0  0  0  0  0  0  0  0  0  0  0
   29.1074   -1.1113  -20.3931 C   0  0  0  0  0  0  0  0  0  0  0  0
   29.7006    1.0249  -19.3197 N   0  0  0  0  0  0  0  0  0  0  0  0
   29.6093    1.5303  -18.0430 O   0  0  0  0  0  0  0  0  0  0  0  0
   30.6598    1.3667  -20.0421 O   0  0  0  0  0  0  0  0  0  0  0  0
   28.3503   -5.0120  -19.1750 S   0  0  0  0  0  0  0  0  0  0  0  0
   28.7540   -6.4579  -19.2425 O   0  0  0  0  0  0  0  0  0  0  0  0
   29.5007   -4.2103  -18.6336 O   0  0  0  0  0  0  0  0  0  0  0  0
   26.9599   -4.8596  -18.1155 C   0  0  0  0  0  0  0  0  0  0  0  0
   26.3944   -3.6007  -17.8831 C   0  0  0  0  0  0  0  0  0  0  0  0
   25.3208   -3.4672  -16.9982 C   0  0  0  0  0  0  0  0  0  0  0  0
   24.8120   -4.5920  -16.3421 C   0  0  0  0  0  0  0  0  0  0  0  0
   23.4798   -4.4222  -15.2207 Cl  0  0  0  0  0  0  0  0  0  0  0  0
   25.3727   -5.8513  -16.5753 C   0  0  0  0  0  0  0  0  0  0  0  0
   26.4465   -5.9849  -17.4602 C   0  0  0  0  0  0  0  0  0  0  0  0
 14 15  1  0  0  0
 15 16  2  0  0  0
 15 17  2  0  0  0
 15 12  1  0  0  0
 12  6  1  0  0  0
  6  7  2  0  0  0
  7  8  1  0  0  0
  8  9  2  0  0  0
  9 10  1  0  0  0
 10 11  2  0  0  0
 10  1  1  0  0  0
 11  6  1  0  0  0
  1  2  2  0  0  0
  2  3  1  0  0  0
  3  4  1  0  0  0
  3 27  1  0  0  0
  4  5  1  0  0  0
  4 18  1  0  0  0
  5  1  1  0  0  0
 18 19  2  0  0  0
 19 20  1  0  0  0
 20 21  2  0  0  0
 21 22  1  0  0  0
 22 23  2  0  0  0
 22 24  1  0  0  0
 23 18  1  0  0  0
 24 25  1  0  0  0
 24 26  2  0  0  0
 27 28  2  0  0  0
 27 29  2  0  0  0
 27 30  1  0  0  0
 30 31  2  0  0  0
 31 32  1  0  0  0
 32 33  2  0  0  0
 33 34  1  0  0  0
 33 35  1  0  0  0
 35 36  2  0  0  0
 36 30  1  0  0  0
 12 13  1  0  0  0
M  CHG 1  24   1
M  CHG 1  25  -1
M  END
>  <minimizedAffinity>
91.02796

>  <minimizedRMSD>
8.11578

$$$$
MCULE-9525666003 PubChem-74603609


 32 33  0  0  0  0  0  0  0  0999 V2000
   28.6100   -3.5619  -23.4662 C   0  0  0  0  0  0  0  0  0  0  0  0
   28.6528   -3.7214  -22.0782 C   0  0  0  0  0  0  0  0  0  0  0  0
   29.7818   -3.3320  -21.3510 C   0  0  0  0  0  0  0  0  0  0  0  0
   30.8787   -2.7761  -22.0269 C   0  0  0  0  0  0  0  0  0  0  0  0
   30.8513   -2.6102  -23.4142 C   0  0  0  0  0  0  0  0  0  0  0  0
   29.7125   -3.0053  -24.1306 C   0  0  0  0  0  0  0  0  0  0  0  0
   27.3985   -4.2132  -25.5040 C   0  0  0  0  0  0  0  0  0  0  0  0
   27.4045   -3.9843  -24.1915 C   0  0  0  0  0  0  0  0  0  0  0  0
   26.2436   -4.7172  -27.6260 C   0  0  0  0  0  0  0  0  0  0  0  0
   25.1157   -5.1156  -28.3488 C   0  0  0  0  0  0  0  0  0  0  0  0
   23.9235   -5.4373  -27.6819 C   0  0  0  0  0  0  0  0  0  0  0  0
   23.8748   -5.3553  -26.2868 C   0  0  0  0  0  0  0  0  0  0  0  0
   25.0023   -4.9569  -25.5631 C   0  0  0  0  0  0  0  0  0  0  0  0
   26.1940   -4.6355  -26.2311 C   0  0  0  0  0  0  0  0  0  0  0  0
   22.7778   -5.8392  -28.3746 O   0  0  0  0  0  0  0  0  0  0  0  0
   22.7206   -6.0093  -30.0753 S   0  0  0  0  0  0  0  0  0  0  0  0
   21.3327   -6.4101  -30.4871 O   0  0  0  0  0  0  0  0  0  0  0  0
   23.0748   -4.7027  -30.7275 O   0  0  0  0  0  0  0  0  0  0  0  0
   23.8083   -7.1932  -30.5626 O   0  0  0  0  0  0  0  0  0  0  0  0
   23.5789   -8.0362  -30.1412 H   0  0  0  0  0  0  0  0  0  0  0  0
   31.9638   -2.0526  -24.0506 O   0  0  0  0  0  0  0  0  0  0  0  0
   31.9966   -1.6716  -25.7174 S   0  0  0  0  0  0  0  0  0  0  0  0
   33.3300   -1.0729  -26.0634 O   0  0  0  0  0  0  0  0  0  0  0  0
   31.7869   -2.9202  -26.5266 O   0  0  0  0  0  0  0  0  0  0  0  0
   30.7825   -0.5648  -26.0687 O   0  0  0  0  0  0  0  0  0  0  0  0
   30.9184    0.2410  -25.5460 H   0  0  0  0  0  0  0  0  0  0  0  0
   29.7847   -3.5081  -19.9644 O   0  0  0  0  0  0  0  0  0  0  0  0
   31.2147   -3.5585  -19.0280 S   0  0  0  0  0  0  0  0  0  0  0  0
   32.1500   -4.5934  -19.5868 O   0  0  0  0  0  0  0  0  0  0  0  0
   30.8674   -3.9159  -17.6109 O   0  0  0  0  0  0  0  0  0  0  0  0
   31.9617   -2.0541  -19.0545 O   0  0  0  0  0  0  0  0  0  0  0  0
   32.1870   -1.8210  -19.9687 H   0  0  0  0  0  0  0  0  0  0  0  0
  9 10  2  0  0  0
 10 11  1  0  0  0
 11 12  2  0  0  0
 11 15  1  0  0  0
 12 13  1  0  0  0
 13 14  2  0  0  0
 14  7  1  0  0  0
 14  9  1  0  0  0
  7  8  2  0  0  0
  8  1  1  0  0  0
  1  2  2  0  0  0
  2  3  1  0  0  0
  3  4  2  0  0  0
  3 27  1  0  0  0
  4  5  1  0  0  0
  5  6  2  0  0  0
  5 21  1  0  0  0
  6  1  1  0  0  0
 21 22  1  0  0  0
 22 23  2  0  0  0
 22 24  2  0  0  0
 22 25  1  0  0  0
 27 28  1  0  0  0
 28 29  2  0  0  0
 28 30  2  0  0  0
 28 31  1  0  0  0
 15 16  1  0  0  0
 16 17  2  0  0  0
 16 18  2  0  0  0
 16 19  1  0  0  0
 25 26  1  0  0  0
 31 32  1  0  0  0
 19 20  1  0  0  0
M  END
>  <minimizedAffinity>
91.89917

>  <minimizedRMSD>
10.88256

$$$$
MCULE-5973583271 LN02184352 MolPort-044-726-152 PubChem-72710702 ZINC000210901326


 56 60  0  0  0  0  0  0  0  0999 V2000
   25.5065  -10.9953  -24.6151 O   0  0  0  0  0  0  0  0  0  0  0  0
   26.4262   -9.9628  -24.7965 C   0  0  0  0  0  0  0  0  0  0  0  0
   25.7651   -8.6076  -24.4348 C   0  0  0  0  0  0  0  0  0  0  0  0
   25.6443   -7.6560  -25.6310 C   0  0  0  0  0  0  0  0  0  0  0  0
   26.1200   -8.2457  -26.8362 O   0  0  0  0  0  0  0  0  0  0  0  0
   27.2980   -7.8124  -27.4473 C   0  0  0  0  0  0  0  0  0  0  0  0
   27.8563   -6.7454  -27.0703 O   0  0  0  0  0  0  0  0  0  0  0  0
   27.9060   -8.6407  -28.5057 C   0  0  0  0  0  0  0  0  0  0  0  0
   27.0475   -9.2957  -29.3953 C   0  0  0  0  0  0  0  0  0  0  0  0
   27.5516  -10.1021  -30.4141 C   0  0  0  0  0  0  0  0  0  0  0  0
   26.6747  -10.7326  -31.2890 O   0  0  0  0  0  0  0  0  0  0  0  0
   28.9315  -10.2734  -30.5509 C   0  0  0  0  0  0  0  0  0  0  0  0
   29.4329  -11.0709  -31.5748 O   0  0  0  0  0  0  0  0  0  0  0  0
   29.8085   -9.6478  -29.6564 C   0  0  0  0  0  0  0  0  0  0  0  0
   31.1776   -9.8588  -29.7869 O   0  0  0  0  0  0  0  0  0  0  0  0
   29.3086   -8.8288  -28.6226 C   0  0  0  0  0  0  0  0  0  0  0  0
   30.2587   -8.2372  -27.6412 C   0  0  0  0  0  0  0  0  0  0  0  0
   31.1543   -7.2351  -28.0719 C   0  0  0  0  0  0  0  0  0  0  0  0
   31.1739   -6.8339  -29.4045 O   0  0  0  0  0  0  0  0  0  0  0  0
   32.0144   -6.6137  -27.1583 C   0  0  0  0  0  0  0  0  0  0  0  0
   32.8926   -5.6268  -27.5906 O   0  0  0  0  0  0  0  0  0  0  0  0
   31.9805   -6.9736  -25.8091 C   0  0  0  0  0  0  0  0  0  0  0  0
   32.8206   -6.3521  -24.8943 O   0  0  0  0  0  0  0  0  0  0  0  0
   31.0959   -7.9582  -25.3725 C   0  0  0  0  0  0  0  0  0  0  0  0
   30.2418   -8.6080  -26.2698 C   0  0  0  0  0  0  0  0  0  0  0  0
   29.3278   -9.6309  -25.7260 C   0  0  0  0  0  0  0  0  0  0  0  0
   29.0291  -10.6485  -26.4084 O   0  0  0  0  0  0  0  0  0  0  0  0
   28.7717   -9.4463  -24.4561 O   0  0  0  0  0  0  0  0  0  0  0  0
   27.6923  -10.2365  -23.9666 C   0  0  0  0  0  0  0  0  0  0  0  0
   27.4701   -9.9211  -22.4805 C   0  0  0  0  0  0  0  0  0  0  0  0
   27.0483  -11.0710  -21.8132 O   0  0  0  0  0  0  0  0  0  0  0  0
   26.4331   -8.8095  -22.2834 C   0  0  0  0  0  0  0  0  0  0  0  0
   26.4386   -7.9414  -23.3890 O   0  0  0  0  0  0  0  0  0  0  0  0
   24.7113  -10.8161  -25.1410 H   0  0  0  0  0  0  0  0  0  0  0  0
   25.7502  -10.6140  -31.1923 H   0  0  0  0  0  0  0  0  0  0  0  0
   28.8456  -11.4893  -32.1732 H   0  0  0  0  0  0  0  0  0  0  0  0
   31.5040  -10.4039  -30.4756 H   0  0  0  0  0  0  0  0  0  0  0  0
   30.6029   -7.2423  -30.0251 H   0  0  0  0  0  0  0  0  0  0  0  0
   32.9164   -5.3844  -28.4954 H   0  0  0  0  0  0  0  0  0  0  0  0
   33.4176   -5.6894  -25.1815 H   0  0  0  0  0  0  0  0  0  0  0  0
   26.2043  -11.3700  -22.1863 H   0  0  0  0  0  0  0  0  0  0  0  0
   26.7230   -8.0905  -21.0923 O   0  0  0  0  0  0  0  0  0  0  0  0
   25.7841   -7.9280  -20.0693 C   0  0  0  0  0  0  0  0  0  0  0  0
   24.8942   -8.8032  -19.8746 O   0  0  0  0  0  0  0  0  0  0  0  0
   25.8364   -6.7286  -19.2173 C   0  0  0  0  0  0  0  0  0  0  0  0
   24.8372   -6.4896  -18.2639 C   0  0  0  0  0  0  0  0  0  0  0  0
   24.8895   -5.3519  -17.4538 C   0  0  0  0  0  0  0  0  0  0  0  0
   23.8925   -5.1294  -16.5120 O   0  0  0  0  0  0  0  0  0  0  0  0
   25.9448   -4.4379  -17.5936 C   0  0  0  0  0  0  0  0  0  0  0  0
   25.9997   -3.3056  -16.7883 O   0  0  0  0  0  0  0  0  0  0  0  0
   26.9431   -4.6699  -18.5485 C   0  0  0  0  0  0  0  0  0  0  0  0
   27.9898   -3.7679  -18.7026 O   0  0  0  0  0  0  0  0  0  0  0  0
   26.8878   -5.8118  -19.3541 C   0  0  0  0  0  0  0  0  0  0  0  0
   23.1890   -5.7416  -16.4209 H   0  0  0  0  0  0  0  0  0  0  0  0
   25.3311   -3.1518  -16.1500 H   0  0  0  0  0  0  0  0  0  0  0  0
   28.0309   -3.0016  -18.1650 H   0  0  0  0  0  0  0  0  0  0  0  0
  2  1  1  0  0  0
  2  3  1  0  0  0
  3  4  1  0  0  0
  4  5  1  0  0  0
  5  6  1  0  0  0
  6  7  2  0  0  0
  6  8  1  0  0  0
  8  9  2  0  0  0
  9 10  1  0  0  0
 10 11  1  0  0  0
 10 12  2  0  0  0
 12 13  1  0  0  0
 12 14  1  0  0  0
 14 15  1  0  0  0
 14 16  2  0  0  0
 16 17  1  0  0  0
 17 18  2  0  0  0
 18 19  1  0  0  0
 18 20  1  0  0  0
 20 21  1  0  0  0
 20 22  2  0  0  0
 22 23  1  0  0  0
 22 24  1  0  0  0
 24 25  2  0  0  0
 25 26  1  0  0  0
 26 27  2  0  0  0
 26 28  1  0  0  0
 29 28  1  0  0  0
 29 30  1  0  0  0
 30 31  1  0  0  0
 30 32  1  0  0  0
 32 42  1  0  0  0
 42 43  1  0  0  0
 43 44  2  0  0  0
 43 45  1  0  0  0
 45 46  2  0  0  0
 46 47  1  0  0  0
 47 48  1  0  0  0
 47 49  2  0  0  0
 49 50  1  0  0  0
 49 51  1  0  0  0
 51 52  1  0  0  0
 51 53  2  0  0  0
 32 33  1  0  0  0
 29  2  1  0  0  0
 53 45  1  0  0  0
 33  3  1  0  0  0
 16  8  1  0  0  0
 25 17  1  0  0  0
  1 34  1  0  0  0
 11 35  1  0  0  0
 13 36  1  0  0  0
 15 37  1  0  0  0
 19 38  1  0  0  0
 21 39  1  0  0  0
 23 40  1  0  0  0
 31 41  1  0  0  0
 48 54  1  0  0  0
 50 55  1  0  0  0
 52 56  1  0  0  0
M  END
>  <minimizedAffinity>
92.89808

>  <minimizedRMSD>
9.71512

$$$$
MCULE-6067031023 PubChem-166727


 60 63  0  0  0  0  0  0  0  0999 V2000
   29.8583   -1.1127  -23.3893 N   0  0  0  0  0  0  0  0  0  0  0  0
   30.7428   -0.8874  -23.8446 H   0  0  0  0  0  0  0  0  0  0  0  0
   29.4859   -0.0455  -22.4724 C   0  0  0  0  0  0  0  0  0  0  0  0
   29.4067   -0.5892  -21.0724 C   0  0  0  0  0  0  0  0  0  0  0  0
   30.5274   -0.7974  -20.3693 C   0  0  0  0  0  0  0  0  0  0  0  0
   31.8555   -0.4716  -21.0078 C   0  0  0  0  0  0  0  0  0  0  0  0
   31.7918    0.8853  -21.7234 C   0  0  0  0  0  0  0  0  0  0  0  0
   30.5128    1.0987  -22.5614 C   0  0  0  0  0  0  0  0  0  0  0  0
   29.9107    2.3003  -22.1888 O   0  0  0  0  0  0  0  0  0  0  0  0
   32.9133    1.0451  -22.5369 O   0  0  0  0  0  0  0  0  0  0  0  0
   32.8815   -0.4617  -20.0600 O   0  0  0  0  0  0  0  0  0  0  0  0
   29.6339    2.2490  -21.2605 H   0  0  0  0  0  0  0  0  0  0  0  0
   32.9102    0.3654  -23.2290 H   0  0  0  0  0  0  0  0  0  0  0  0
   32.7048    0.2263  -19.3995 H   0  0  0  0  0  0  0  0  0  0  0  0
   30.4384   -1.3439  -18.9780 C   0  0  0  0  0  0  0  0  0  0  0  0
   29.7305   -2.5485  -18.9816 O   0  0  0  0  0  0  0  0  0  0  0  0
   30.7072   -3.5403  -19.1367 C   0  0  0  0  0  0  0  0  0  0  0  0
   30.0913   -4.9247  -19.4853 C   0  0  0  0  0  0  0  0  0  0  0  0
   30.8560   -6.0582  -18.7959 C   0  0  0  0  0  0  0  0  0  0  0  0
   31.0282   -5.7844  -17.2866 C   0  0  0  0  0  0  0  0  0  0  0  0
   30.9905   -4.2738  -16.9851 C   0  0  0  0  0  0  0  0  0  0  0  0
   31.5943   -3.5508  -18.0300 O   0  0  0  0  0  0  0  0  0  0  0  0
   32.1997   -6.3808  -16.8062 O   0  0  0  0  0  0  0  0  0  0  0  0
   32.0956   -6.2218  -19.4216 O   0  0  0  0  0  0  0  0  0  0  0  0
   28.7433   -4.9828  -19.1198 O   0  0  0  0  0  0  0  0  0  0  0  0
   32.9670   -5.9967  -17.2585 H   0  0  0  0  0  0  0  0  0  0  0  0
   32.6090   -5.4027  -19.3411 H   0  0  0  0  0  0  0  0  0  0  0  0
   28.6636   -4.8720  -18.1595 H   0  0  0  0  0  0  0  0  0  0  0  0
   31.6206   -3.9198  -15.6462 C   0  0  0  0  0  0  0  0  0  0  0  0
   30.8256   -2.9856  -14.9814 O   0  0  0  0  0  0  0  0  0  0  0  0
   30.7510   -2.1827  -15.5205 H   0  0  0  0  0  0  0  0  0  0  0  0
   27.9596   -2.4756  -24.1261 C   0  0  0  0  0  0  0  0  0  0  0  0
   28.7617   -3.7554  -24.3785 C   0  0  0  0  0  0  0  0  0  0  0  0
   29.2808   -3.7785  -25.8241 C   0  0  0  0  0  0  0  0  0  0  0  0
   30.1512   -2.5448  -26.1069 C   0  0  0  0  0  0  0  0  0  0  0  0
   29.3770   -1.2557  -25.8077 C   0  0  0  0  0  0  0  0  0  0  0  0
   28.8006   -1.2255  -24.3859 C   0  0  0  0  0  0  0  0  0  0  0  0
   30.1725   -0.1336  -26.0457 O   0  0  0  0  0  0  0  0  0  0  0  0
   31.3405   -2.5971  -25.3730 O   0  0  0  0  0  0  0  0  0  0  0  0
   30.9328   -0.1425  -25.4434 H   0  0  0  0  0  0  0  0  0  0  0  0
   31.1355   -2.5979  -24.4249 H   0  0  0  0  0  0  0  0  0  0  0  0
   27.8795   -4.9612  -24.1028 C   0  0  0  0  0  0  0  0  0  0  0  0
   26.7160   -4.5609  -23.4461 O   0  0  0  0  0  0  0  0  0  0  0  0
   26.9486   -4.1404  -22.6035 H   0  0  0  0  0  0  0  0  0  0  0  0
   30.0221   -4.9536  -26.0649 O   0  0  0  0  0  0  0  0  0  0  0  0
   29.2217   -5.8688  -26.7891 C   0  0  0  0  0  0  0  0  0  0  0  0
   29.0596   -5.4776  -28.2675 C   0  0  0  0  0  0  0  0  0  0  0  0
   28.1070   -6.4523  -28.9541 C   0  0  0  0  0  0  0  0  0  0  0  0
   28.5128   -7.8925  -28.6564 C   0  0  0  0  0  0  0  0  0  0  0  0
   28.7127   -8.1013  -27.1482 C   0  0  0  0  0  0  0  0  0  0  0  0
   29.6745   -7.2036  -26.6268 O   0  0  0  0  0  0  0  0  0  0  0  0
   27.5569   -8.7811  -29.1539 O   0  0  0  0  0  0  0  0  0  0  0  0
   28.1255   -6.2341  -30.3325 O   0  0  0  0  0  0  0  0  0  0  0  0
   28.5351   -4.1878  -28.3565 O   0  0  0  0  0  0  0  0  0  0  0  0
   26.7054   -8.6165  -28.7195 H   0  0  0  0  0  0  0  0  0  0  0  0
   29.0223   -6.3822  -30.6713 H   0  0  0  0  0  0  0  0  0  0  0  0
   27.6684   -4.1605  -27.9219 H   0  0  0  0  0  0  0  0  0  0  0  0
   27.4068   -8.0926  -26.3492 C   0  0  0  0  0  0  0  0  0  0  0  0
   27.5164   -8.9497  -25.2544 O   0  0  0  0  0  0  0  0  0  0  0  0
   27.6931   -9.8511  -25.5659 H   0  0  0  0  0  0  0  0  0  0  0  0
 32 33  1  0  0  0
 33 34  1  0  0  0
 33 42  1  0  0  0
 34 35  1  0  0  0
 34 45  1  0  0  0
 35 36  1  0  0  0
 35 39  1  0  0  0
 36 37  1  0  0  0
 36 38  1  0  0  0
 37  1  1  0  0  0
 37 32  1  0  0  0
  3  1  1  0  0  0
  3  4  1  0  0  0
  4  5  2  0  0  0
  5  6  1  0  0  0
  5 15  1  0  0  0
  6  7  1  0  0  0
  6 11  1  0  0  0
  7  8  1  0  0  0
  7 10  1  0  0  0
  8  9  1  0  0  0
  8  3  1  0  0  0
 15 16  1  0  0  0
 17 16  1  0  0  0
 17 18  1  0  0  0
 18 19  1  0  0  0
 18 25  1  0  0  0
 19 20  1  0  0  0
 19 24  1  0  0  0
 20 21  1  0  0  0
 20 23  1  0  0  0
 21 22  1  0  0  0
 21 29  1  0  0  0
 22 17  1  0  0  0
 29 30  1  0  0  0
 46 45  1  0  0  0
 46 47  1  0  0  0
 47 48  1  0  0  0
 47 54  1  0  0  0
 48 49  1  0  0  0
 48 53  1  0  0  0
 49 50  1  0  0  0
 49 52  1  0  0  0
 50 51  1  0  0  0
 50 58  1  0  0  0
 51 46  1  0  0  0
 58 59  1  0  0  0
 42 43  1  0  0  0
  1  2  1  0  0  0
  9 12  1  0  0  0
 10 13  1  0  0  0
 11 14  1  0  0  0
 30 31  1  0  0  0
 23 26  1  0  0  0
 24 27  1  0  0  0
 25 28  1  0  0  0
 38 40  1  0  0  0
 39 41  1  0  0  0
 59 60  1  0  0  0
 52 55  1  0  0  0
 53 56  1  0  0  0
 54 57  1  0  0  0
 43 44  1  0  0  0
M  END
>  <minimizedAffinity>
97.80075

>  <minimizedRMSD>
5.24648

$$$$
MCULE-3597025847 MolPort-005-945-109 PubChem-45359838


 64 69  0  0  0  0  0  0  0  0999 V2000
   27.2813   -9.3935  -21.2812 C   0  0  0  0  0  0  0  0  0  0  0  0
   25.7532   -9.2352  -21.3874 C   0  0  0  0  0  0  0  0  0  0  0  0
   25.4686   -8.4769  -22.6804 C   0  0  0  0  0  0  0  0  0  0  0  0
   26.5699   -8.9341  -23.6081 C   0  0  0  0  0  0  0  0  0  0  0  0
   27.7801   -9.0021  -22.6829 C   0  0  0  0  0  0  0  0  0  0  0  0
   28.9323   -9.7440  -23.3739 C   0  0  0  0  0  0  0  0  0  0  0  0
   29.3527   -8.9160  -24.5980 C   0  0  0  0  0  0  0  0  0  0  0  0
   28.1505   -8.6136  -25.5268 C   0  0  0  0  0  0  0  0  0  0  0  0
   26.9246   -7.9822  -24.7818 C   0  0  0  0  0  0  0  0  0  0  0  0
   25.7341   -7.8451  -25.7442 C   0  0  0  0  0  0  0  0  0  0  0  0
   26.1144   -7.0908  -27.0155 C   0  0  0  0  0  0  0  0  0  0  0  0
   27.2380   -7.8428  -27.7339 C   0  0  0  0  0  0  0  0  0  0  0  0
   28.5240   -7.9533  -26.8745 C   0  0  0  0  0  0  0  0  0  0  0  0
   29.5256   -8.8524  -27.6087 C   0  0  0  0  0  0  0  0  0  0  0  0
   29.8224   -8.3381  -29.0145 C   0  0  0  0  0  0  0  0  0  0  0  0
   28.5424   -8.3067  -29.8462 C   0  0  0  0  0  0  0  0  0  0  0  0
   27.4518   -7.4197  -29.2076 C   0  0  0  0  0  0  0  0  0  0  0  0
   26.1537   -7.6416  -29.9686 C   0  0  0  0  0  0  0  0  0  0  0  0
   27.8180   -5.9423  -29.3156 C   0  0  0  0  0  0  0  0  0  0  0  0
   29.1655   -6.5860  -26.6307 C   0  0  0  0  0  0  0  0  0  0  0  0
   27.2671   -6.5858  -24.2448 C   0  0  0  0  0  0  0  0  0  0  0  0
   30.0277   -9.9077  -22.5299 O   0  0  0  0  0  0  0  0  0  0  0  0
   26.1772  -10.3286  -24.1329 C   0  0  0  0  0  0  0  0  0  0  0  0
   30.3573   -9.0376  -22.2555 H   0  0  0  0  0  0  0  0  0  0  0  0
   27.8599   -8.4783  -20.1450 C   0  0  0  0  0  0  0  0  0  0  0  0
   26.7146   -7.7110  -19.4999 C   0  0  0  0  0  0  0  0  0  0  0  0
   28.5212   -9.3297  -19.0353 C   0  0  0  0  0  0  0  0  0  0  0  0
   27.5748   -9.6675  -17.8885 C   0  0  0  0  0  0  0  0  0  0  0  0
   27.9806   -7.9952  -15.4746 C   0  0  0  0  0  0  0  0  0  0  0  0
   26.9072   -7.7126  -16.4761 C   0  0  0  0  0  0  0  0  0  0  0  0
   26.7257   -8.4783  -17.5600 C   0  0  0  0  0  0  0  0  0  0  0  0
   26.0051   -6.5486  -16.2541 C   0  0  0  0  0  0  0  0  0  0  0  0
   28.7340   -7.4815  -20.6646 O   0  0  0  0  0  0  0  0  0  0  0  0
   29.8387   -7.2621  -19.8197 C   0  0  0  0  0  0  0  0  0  0  0  0
   29.6426   -5.9619  -19.0341 C   0  0  0  0  0  0  0  0  0  0  0  0
   30.8552   -5.7317  -18.1310 C   0  0  0  0  0  0  0  0  0  0  0  0
   31.2301   -7.0016  -17.3620 C   0  0  0  0  0  0  0  0  0  0  0  0
   31.2315   -8.2025  -18.3179 C   0  0  0  0  0  0  0  0  0  0  0  0
   29.9661   -8.3334  -18.9189 O   0  0  0  0  0  0  0  0  0  0  0  0
   32.4962   -6.8391  -16.7949 O   0  0  0  0  0  0  0  0  0  0  0  0
   30.5830   -4.7003  -17.2318 O   0  0  0  0  0  0  0  0  0  0  0  0
   29.5074   -4.8876  -19.9150 O   0  0  0  0  0  0  0  0  0  0  0  0
   33.1466   -6.6791  -17.4965 H   0  0  0  0  0  0  0  0  0  0  0  0
   29.8308   -4.9494  -16.6722 H   0  0  0  0  0  0  0  0  0  0  0  0
   30.3076   -4.8121  -20.4581 H   0  0  0  0  0  0  0  0  0  0  0  0
   31.5622   -9.4787  -17.5624 C   0  0  0  0  0  0  0  0  0  0  0  0
   30.4568  -10.3287  -17.5663 O   0  0  0  0  0  0  0  0  0  0  0  0
   29.7081   -9.8875  -17.1354 H   0  0  0  0  0  0  0  0  0  0  0  0
   28.8425   -7.8960  -31.1526 O   0  0  0  0  0  0  0  0  0  0  0  0
   29.7345   -6.8283  -31.0067 C   0  0  0  0  0  0  0  0  0  0  0  0
   28.9837   -5.5752  -30.5488 C   0  0  0  0  0  0  0  0  0  0  0  0
   29.9740   -4.4191  -30.4160 C   0  0  0  0  0  0  0  0  0  0  0  0
   31.2193   -4.8415  -29.6328 C   0  0  0  0  0  0  0  0  0  0  0  0
   31.7290   -6.1885  -30.1645 C   0  0  0  0  0  0  0  0  0  0  0  0
   30.7162   -7.1593  -30.0546 O   0  0  0  0  0  0  0  0  0  0  0  0
   32.2070   -3.8657  -29.7779 O   0  0  0  0  0  0  0  0  0  0  0  0
   29.3587   -3.3398  -29.7798 O   0  0  0  0  0  0  0  0  0  0  0  0
   27.9993   -5.2405  -31.4809 O   0  0  0  0  0  0  0  0  0  0  0  0
   32.4298   -3.7682  -30.7169 H   0  0  0  0  0  0  0  0  0  0  0  0
   29.0811   -3.6050  -28.8890 H   0  0  0  0  0  0  0  0  0  0  0  0
   28.4137   -5.0659  -32.3404 H   0  0  0  0  0  0  0  0  0  0  0  0
   32.9453   -6.6410  -29.3743 C   0  0  0  0  0  0  0  0  0  0  0  0
   33.8568   -5.5902  -29.2638 O   0  0  0  0  0  0  0  0  0  0  0  0
   34.1386   -5.3122  -30.1494 H   0  0  0  0  0  0  0  0  0  0  0  0
 29 30  1  0  0  0
 30 31  2  0  0  0
 30 32  1  0  0  0
 31 28  1  0  0  0
 28 27  1  0  0  0
 25 27  1  0  0  0
 25 26  1  0  0  0
 25  1  1  0  0  0
 25 33  1  0  0  0
  1  2  1  0  0  0
  2  3  1  0  0  0
  3  4  1  0  0  0
  4 23  1  0  0  0
  5  4  1  0  0  0
  5  6  1  0  0  0
  5  1  1  0  0  0
  6  7  1  0  0  0
  6 22  1  0  0  0
  8  7  1  0  0  0
  8  9  1  0  0  0
  9 10  1  0  0  0
  9 21  1  0  0  0
  9  4  1  0  0  0
 10 11  1  0  0  0
 12 11  1  0  0  0
 12 13  1  0  0  0
 13 14  1  0  0  0
 13 20  1  0  0  0
 13  8  1  0  0  0
 14 15  1  0  0  0
 15 16  1  0  0  0
 16 17  1  0  0  0
 16 49  1  0  0  0
 17 18  1  0  0  0
 17 19  1  0  0  0
 17 12  1  0  0  0
 50 49  1  0  0  0
 50 51  1  0  0  0
 51 52  1  0  0  0
 51 58  1  0  0  0
 52 53  1  0  0  0
 52 57  1  0  0  0
 53 54  1  0  0  0
 53 56  1  0  0  0
 54 55  1  0  0  0
 54 62  1  0  0  0
 55 50  1  0  0  0
 62 63  1  0  0  0
 34 33  1  0  0  0
 34 35  1  0  0  0
 35 36  1  0  0  0
 35 42  1  0  0  0
 36 37  1  0  0  0
 36 41  1  0  0  0
 37 38  1  0  0  0
 37 40  1  0  0  0
 38 39  1  0  0  0
 38 46  1  0  0  0
 39 34  1  0  0  0
 46 47  1  0  0  0
 63 64  1  0  0  0
 56 59  1  0  0  0
 57 60  1  0  0  0
 58 61  1  0  0  0
 22 24  1  0  0  0
 47 48  1  0  0  0
 40 43  1  0  0  0
 41 44  1  0  0  0
 42 45  1  0  0  0
M  END
>  <minimizedAffinity>
99.36706

>  <minimizedRMSD>
11.71460

$$$$
MCULE-9140397432 MolPort-047-114-031 NSC69862 PubChem-250396


 81 87  0  0  0  0  0  0  0  0999 V2000
   25.4809   -8.3176  -21.8324 C   0  0  0  0  0  0  0  0  0  0  0  0
   26.9736   -8.6104  -22.1561 C   0  0  0  0  0  0  0  0  0  0  0  0
   27.6849   -7.2875  -22.5016 C   0  0  0  0  0  0  0  0  0  0  0  0
   26.9759   -6.6035  -23.6765 C   0  0  0  0  0  0  0  0  0  0  0  0
   25.4420   -6.7354  -23.5034 C   0  0  0  0  0  0  0  0  0  0  0  0
   25.0819   -7.0012  -22.1630 O   0  0  0  0  0  0  0  0  0  0  0  0
   27.4040   -7.2707  -24.8682 O   0  0  0  0  0  0  0  0  0  0  0  0
   26.9140   -7.0158  -26.1532 C   0  0  0  0  0  0  0  0  0  0  0  0
   26.0822   -6.0769  -26.3343 O   0  0  0  0  0  0  0  0  0  0  0  0
   27.3859   -7.8207  -27.3265 C   0  0  0  0  0  0  0  0  0  0  0  0
   26.7300   -7.6067  -28.5524 C   0  0  0  0  0  0  0  0  0  0  0  0
   27.1306   -8.2518  -29.7168 C   0  0  0  0  0  0  0  0  0  0  0  0
   28.2238   -9.1126  -29.7027 C   0  0  0  0  0  0  0  0  0  0  0  0
   28.9176   -9.3371  -28.5104 C   0  0  0  0  0  0  0  0  0  0  0  0
   28.4820   -8.7306  -27.3011 C   0  0  0  0  0  0  0  0  0  0  0  0
   29.1726   -9.1590  -26.0222 C   0  0  0  0  0  0  0  0  0  0  0  0
   28.3659  -10.2432  -25.2659 C   0  0  0  0  0  0  0  0  0  0  0  0
   28.2836   -9.9214  -23.8056 C   0  0  0  0  0  0  0  0  0  0  0  0
   29.3090  -10.0015  -23.0743 O   0  0  0  0  0  0  0  0  0  0  0  0
   27.0660   -9.4931  -23.2780 O   0  0  0  0  0  0  0  0  0  0  0  0
   30.6821   -9.4168  -26.2186 C   0  0  0  0  0  0  0  0  0  0  0  0
   30.9503  -10.2169  -27.4615 C   0  0  0  0  0  0  0  0  0  0  0  0
   31.9592  -10.9658  -27.5379 O   0  0  0  0  0  0  0  0  0  0  0  0
   30.0600  -10.1427  -28.5384 O   0  0  0  0  0  0  0  0  0  0  0  0
   31.2622  -10.0390  -25.0966 O   0  0  0  0  0  0  0  0  0  0  0  0
   28.6339   -9.7370  -30.8784 O   0  0  0  0  0  0  0  0  0  0  0  0
   26.4352   -8.0189  -30.8933 O   0  0  0  0  0  0  0  0  0  0  0  0
   30.8621  -10.9134  -24.9689 H   0  0  0  0  0  0  0  0  0  0  0  0
   28.1674   -9.5852  -31.6768 H   0  0  0  0  0  0  0  0  0  0  0  0
   25.7000   -7.4380  -30.8958 H   0  0  0  0  0  0  0  0  0  0  0  0
   24.4781   -9.3314  -22.3961 C   0  0  0  0  0  0  0  0  0  0  0  0
   24.3994  -10.5188  -21.6159 O   0  0  0  0  0  0  0  0  0  0  0  0
   23.4268  -10.7286  -20.6347 C   0  0  0  0  0  0  0  0  0  0  0  0
   23.3714   -9.9814  -19.6156 O   0  0  0  0  0  0  0  0  0  0  0  0
   22.5080  -12.9797  -20.0468 C   0  0  0  0  0  0  0  0  0  0  0  0
   22.4468  -11.8100  -20.8158 C   0  0  0  0  0  0  0  0  0  0  0  0
   21.3923  -11.6398  -21.7236 C   0  0  0  0  0  0  0  0  0  0  0  0
   20.4147  -12.6278  -21.8676 C   0  0  0  0  0  0  0  0  0  0  0  0
   20.4731  -13.7938  -21.0941 C   0  0  0  0  0  0  0  0  0  0  0  0
   21.5245  -13.9700  -20.1824 C   0  0  0  0  0  0  0  0  0  0  0  0
   21.5921  -15.1243  -19.4111 O   0  0  0  0  0  0  0  0  0  0  0  0
   19.4953  -14.7737  -21.2357 O   0  0  0  0  0  0  0  0  0  0  0  0
   19.3751  -12.4414  -22.7727 O   0  0  0  0  0  0  0  0  0  0  0  0
   20.9356  -15.7868  -19.5007 H   0  0  0  0  0  0  0  0  0  0  0  0
   18.7948  -14.6519  -21.8459 H   0  0  0  0  0  0  0  0  0  0  0  0
   19.3379  -11.6605  -23.2893 H   0  0  0  0  0  0  0  0  0  0  0  0
   24.7918   -5.5481  -23.9447 O   0  0  0  0  0  0  0  0  0  0  0  0
   23.4997   -5.5666  -24.4848 C   0  0  0  0  0  0  0  0  0  0  0  0
   22.4938   -5.4047  -23.7316 O   0  0  0  0  0  0  0  0  0  0  0  0
   23.3092   -5.8233  -25.9191 C   0  0  0  0  0  0  0  0  0  0  0  0
   23.1010   -7.1306  -26.3841 C   0  0  0  0  0  0  0  0  0  0  0  0
   22.9359   -7.3792  -27.7473 C   0  0  0  0  0  0  0  0  0  0  0  0
   22.9798   -6.3184  -28.6643 C   0  0  0  0  0  0  0  0  0  0  0  0
   23.1639   -5.0077  -28.2044 C   0  0  0  0  0  0  0  0  0  0  0  0
   23.3307   -4.7638  -26.8370 C   0  0  0  0  0  0  0  0  0  0  0  0
   23.2036   -3.9441  -29.1006 O   0  0  0  0  0  0  0  0  0  0  0  0
   22.8406   -6.5667  -30.0247 O   0  0  0  0  0  0  0  0  0  0  0  0
   22.7520   -8.6840  -28.1892 O   0  0  0  0  0  0  0  0  0  0  0  0
   23.0927   -4.1000  -30.0179 H   0  0  0  0  0  0  0  0  0  0  0  0
   22.7176   -7.4437  -30.3307 H   0  0  0  0  0  0  0  0  0  0  0  0
   22.7236   -9.3881  -27.5717 H   0  0  0  0  0  0  0  0  0  0  0  0
   28.8127  -11.6932  -25.4712 C   0  0  0  0  0  0  0  0  0  0  0  0
   28.3315  -12.5969  -24.3861 C   0  0  0  0  0  0  0  0  0  0  0  0
   27.1232  -12.5761  -24.0233 O   0  0  0  0  0  0  0  0  0  0  0  0
   29.2391  -13.4143  -23.7268 O   0  0  0  0  0  0  0  0  0  0  0  0
   30.1365  -13.4303  -23.9956 H   0  0  0  0  0  0  0  0  0  0  0  0
   27.6967   -6.4095  -21.3764 O   0  0  0  0  0  0  0  0  0  0  0  0
   28.1426   -6.8190  -20.1172 C   0  0  0  0  0  0  0  0  0  0  0  0
   27.3400   -7.3393  -19.2912 O   0  0  0  0  0  0  0  0  0  0  0  0
   29.5708   -6.6830  -19.7807 C   0  0  0  0  0  0  0  0  0  0  0  0
   30.5434   -7.3143  -20.5695 C   0  0  0  0  0  0  0  0  0  0  0  0
   31.9012   -7.2167  -20.2371 C   0  0  0  0  0  0  0  0  0  0  0  0
   32.2980   -6.4908  -19.1109 C   0  0  0  0  0  0  0  0  0  0  0  0
   31.3313   -5.8627  -18.3182 C   0  0  0  0  0  0  0  0  0  0  0  0
   29.9744   -5.9571  -18.6522 C   0  0  0  0  0  0  0  0  0  0  0  0
   31.7109   -5.1378  -17.1962 O   0  0  0  0  0  0  0  0  0  0  0  0
   33.6475   -6.3915  -18.7847 O   0  0  0  0  0  0  0  0  0  0  0  0
   32.8455   -7.8531  -21.0315 O   0  0  0  0  0  0  0  0  0  0  0  0
   32.6167   -5.0702  -16.9665 H   0  0  0  0  0  0  0  0  0  0  0  0
   34.2909   -6.8141  -19.3190 H   0  0  0  0  0  0  0  0  0  0  0  0
   32.5732   -8.3384  -21.7854 H   0  0  0  0  0  0  0  0  0  0  0  0
 35 36  2  0  0  0
 36 37  1  0  0  0
 36 33  1  0  0  0
 37 38  2  0  0  0
 38 39  1  0  0  0
 38 43  1  0  0  0
 39 40  2  0  0  0
 39 42  1  0  0  0
 40 41  1  0  0  0
 40 35  1  0  0  0
 33 34  2  0  0  0
 33 32  1  0  0  0
 32 31  1  0  0  0
  1 31  1  0  0  0
  1  2  1  0  0  0
  2  3  1  0  0  0
  2 20  1  0  0  0
  3  4  1  0  0  0
  3 67  1  0  0  0
  4  5  1  0  0  0
  4  7  1  0  0  0
  5  6  1  0  0  0
  5 47  1  0  0  0
  6  1  1  0  0  0
 47 48  1  0  0  0
 48 49  2  0  0  0
 48 50  1  0  0  0
 50 51  2  0  0  0
 51 52  1  0  0  0
 52 53  2  0  0  0
 52 58  1  0  0  0
 53 54  1  0  0  0
 53 57  1  0  0  0
 54 55  2  0  0  0
 54 56  1  0  0  0
 55 50  1  0  0  0
  7  8  1  0  0  0
  8  9  2  0  0  0
  8 10  1  0  0  0
 10 11  2  0  0  0
 11 12  1  0  0  0
 12 13  2  0  0  0
 12 27  1  0  0  0
 13 14  1  0  0  0
 13 26  1  0  0  0
 14 15  2  0  0  0
 15 10  1  0  0  0
 16 15  1  0  0  0
 16 17  1  0  0  0
 16 21  1  0  0  0
 17 18  1  0  0  0
 17 62  1  0  0  0
 18 19  2  0  0  0
 18 20  1  0  0  0
 62 63  1  0  0  0
 63 64  2  0  0  0
 63 65  1  0  0  0
 21 22  1  0  0  0
 21 25  1  0  0  0
 22 23  2  0  0  0
 22 24  1  0  0  0
 24 14  1  0  0  0
 67 68  1  0  0  0
 68 69  2  0  0  0
 68 70  1  0  0  0
 70 71  2  0  0  0
 71 72  1  0  0  0
 72 73  2  0  0  0
 72 78  1  0  0  0
 73 74  1  0  0  0
 73 77  1  0  0  0
 74 75  2  0  0  0
 74 76  1  0  0  0
 75 70  1  0  0  0
 41 44  1  0  0  0
 42 45  1  0  0  0
 43 46  1  0  0  0
 56 59  1  0  0  0
 57 60  1  0  0  0
 58 61  1  0  0  0
 65 66  1  0  0  0
 25 28  1  0  0  0
 26 29  1  0  0  0
 27 30  1  0  0  0
 76 79  1  0  0  0
 77 80  1  0  0  0
 78 81  1  0  0  0
M  END
>  <minimizedAffinity>
101.73554

>  <minimizedRMSD>
8.80427

$$$$
MCULE-2081200545 CHEMBL3357163 MolPort-046-836-847 PubChem-15940177


 80 86  0  0  0  0  0  0  0  0999 V2000
   28.6008   -9.0406  -26.5561 C   0  0  0  0  0  0  0  0  0  0  0  0
   27.5680  -10.0315  -25.9912 C   0  0  0  0  0  0  0  0  0  0  0  0
   28.0107  -10.4167  -24.5833 C   0  0  0  0  0  0  0  0  0  0  0  0
   28.8180   -9.2272  -24.1165 C   0  0  0  0  0  0  0  0  0  0  0  0
   29.5785   -8.8189  -25.3810 C   0  0  0  0  0  0  0  0  0  0  0  0
   30.3144   -7.4796  -25.1562 C   0  0  0  0  0  0  0  0  0  0  0  0
   31.3262   -7.6507  -24.0079 C   0  0  0  0  0  0  0  0  0  0  0  0
   30.6239   -8.1902  -22.7522 C   0  0  0  0  0  0  0  0  0  0  0  0
   29.8476   -9.5155  -22.9924 C   0  0  0  0  0  0  0  0  0  0  0  0
   29.1838  -10.0478  -21.7027 C   0  0  0  0  0  0  0  0  0  0  0  0
   29.0504   -9.0636  -20.5260 C   0  0  0  0  0  0  0  0  0  0  0  0
   30.2180   -8.0687  -20.3375 C   0  0  0  0  0  0  0  0  0  0  0  0
   31.3404   -8.0902  -21.3970 C   0  0  0  0  0  0  0  0  0  0  0  0
   32.1329   -6.7847  -21.2780 C   0  0  0  0  0  0  0  0  0  0  0  0
   32.7065   -6.6170  -19.8717 C   0  0  0  0  0  0  0  0  0  0  0  0
   31.5807   -6.5569  -18.8381 C   0  0  0  0  0  0  0  0  0  0  0  0
   30.6505   -7.7873  -18.8814 C   0  0  0  0  0  0  0  0  0  0  0  0
   31.3269   -9.0118  -18.2822 C   0  0  0  0  0  0  0  0  0  0  0  0
   29.4268   -7.4665  -18.0375 C   0  0  0  0  0  0  0  0  0  0  0  0
   32.2973   -9.2683  -21.1982 C   0  0  0  0  0  0  0  0  0  0  0  0
   27.8525   -8.3591  -20.6312 O   0  0  0  0  0  0  0  0  0  0  0  0
   30.8137  -10.6138  -23.4461 C   0  0  0  0  0  0  0  0  0  0  0  0
   31.0057   -7.0723  -26.2920 O   0  0  0  0  0  0  0  0  0  0  0  0
   27.8267   -8.1294  -23.6863 C   0  0  0  0  0  0  0  0  0  0  0  0
   27.8694   -7.8101  -21.4307 H   0  0  0  0  0  0  0  0  0  0  0  0
   31.6760   -7.7360  -26.5179 H   0  0  0  0  0  0  0  0  0  0  0  0
   29.2476   -9.6107  -27.8567 C   0  0  0  0  0  0  0  0  0  0  0  0
   30.4209   -8.7208  -28.3188 C   0  0  0  0  0  0  0  0  0  0  0  0
   28.1999   -9.5871  -28.9724 C   0  0  0  0  0  0  0  0  0  0  0  0
   27.8477   -8.1833  -29.4614 C   0  0  0  0  0  0  0  0  0  0  0  0
   28.4780   -5.7605  -27.9168 C   0  0  0  0  0  0  0  0  0  0  0  0
   27.1524   -6.4411  -27.8213 C   0  0  0  0  0  0  0  0  0  0  0  0
   26.8690   -7.5370  -28.5295 C   0  0  0  0  0  0  0  0  0  0  0  0
   26.1057   -5.8695  -26.9299 C   0  0  0  0  0  0  0  0  0  0  0  0
   29.5976  -10.9832  -27.6761 O   0  0  0  0  0  0  0  0  0  0  0  0
   30.4039  -11.4825  -28.7189 C   0  0  0  0  0  0  0  0  0  0  0  0
   31.7230  -12.0169  -28.1457 C   0  0  0  0  0  0  0  0  0  0  0  0
   32.5964  -12.4981  -29.3027 C   0  0  0  0  0  0  0  0  0  0  0  0
   31.8097  -13.4244  -30.2370 C   0  0  0  0  0  0  0  0  0  0  0  0
   30.4380  -12.8049  -30.5581 C   0  0  0  0  0  0  0  0  0  0  0  0
   29.7298  -12.5350  -29.3680 O   0  0  0  0  0  0  0  0  0  0  0  0
   32.5351  -13.6137  -31.4137 O   0  0  0  0  0  0  0  0  0  0  0  0
   33.7209  -13.1651  -28.8120 O   0  0  0  0  0  0  0  0  0  0  0  0
   32.3914  -11.0114  -27.4410 O   0  0  0  0  0  0  0  0  0  0  0  0
   32.6747  -12.7580  -31.8487 H   0  0  0  0  0  0  0  0  0  0  0  0
   33.4399  -13.9430  -28.3053 H   0  0  0  0  0  0  0  0  0  0  0  0
   32.5838  -10.2714  -28.0380 H   0  0  0  0  0  0  0  0  0  0  0  0
   29.6276  -13.7633  -31.4137 C   0  0  0  0  0  0  0  0  0  0  0  0
   28.2743  -13.6627  -31.0878 O   0  0  0  0  0  0  0  0  0  0  0  0
   28.1493  -13.8887  -30.1528 H   0  0  0  0  0  0  0  0  0  0  0  0
   32.1098   -6.3833  -17.5448 O   0  0  0  0  0  0  0  0  0  0  0  0
   31.3500   -5.4180  -16.8452 C   0  0  0  0  0  0  0  0  0  0  0  0
   32.2466   -4.3661  -16.1718 C   0  0  0  0  0  0  0  0  0  0  0  0
   31.6055   -2.9697  -16.1924 C   0  0  0  0  0  0  0  0  0  0  0  0
   30.0770   -3.0016  -16.0494 C   0  0  0  0  0  0  0  0  0  0  0  0
   29.4417   -4.2530  -16.6865 C   0  0  0  0  0  0  0  0  0  0  0  0
   30.3131   -4.8438  -17.6149 O   0  0  0  0  0  0  0  0  0  0  0  0
   29.7311   -2.9386  -14.6973 O   0  0  0  0  0  0  0  0  0  0  0  0
   31.9467   -2.3166  -17.3803 O   0  0  0  0  0  0  0  0  0  0  0  0
   30.0849   -3.7153  -14.2365 H   0  0  0  0  0  0  0  0  0  0  0  0
   31.5912   -2.8116  -18.1349 H   0  0  0  0  0  0  0  0  0  0  0  0
   28.1373   -3.8902  -17.3748 C   0  0  0  0  0  0  0  0  0  0  0  0
   28.1635   -4.3310  -18.6962 O   0  0  0  0  0  0  0  0  0  0  0  0
   28.9000   -3.9071  -19.1639 H   0  0  0  0  0  0  0  0  0  0  0  0
   32.4904   -4.7625  -14.8530 O   0  0  0  0  0  0  0  0  0  0  0  0
   32.5137   -3.5828  -14.0988 C   0  0  0  0  0  0  0  0  0  0  0  0
   32.1694   -3.9112  -12.6420 C   0  0  0  0  0  0  0  0  0  0  0  0
   32.2346   -2.6377  -11.7957 C   0  0  0  0  0  0  0  0  0  0  0  0
   33.5000   -1.8277  -12.0902 C   0  0  0  0  0  0  0  0  0  0  0  0
   33.6966   -1.7185  -13.6097 C   0  0  0  0  0  0  0  0  0  0  0  0
   33.7987   -3.0096  -14.1626 O   0  0  0  0  0  0  0  0  0  0  0  0
   33.3751   -0.5530  -11.5298 O   0  0  0  0  0  0  0  0  0  0  0  0
   32.2004   -2.9764  -10.4413 O   0  0  0  0  0  0  0  0  0  0  0  0
   30.8853   -4.4532  -12.5712 O   0  0  0  0  0  0  0  0  0  0  0  0
   32.6054   -0.1049  -11.9141 H   0  0  0  0  0  0  0  0  0  0  0  0
   32.9701   -3.5260  -10.2259 H   0  0  0  0  0  0  0  0  0  0  0  0
   30.2436   -3.8098  -12.9107 H   0  0  0  0  0  0  0  0  0  0  0  0
   34.9652   -0.9336  -13.9259 C   0  0  0  0  0  0  0  0  0  0  0  0
   35.7304   -0.7803  -12.7700 O   0  0  0  0  0  0  0  0  0  0  0  0
   35.2169   -0.2970  -12.1039 H   0  0  0  0  0  0  0  0  0  0  0  0
 31 32  1  0  0  0
 32 33  2  0  0  0
 32 34  1  0  0  0
 33 30  1  0  0  0
 30 29  1  0  0  0
 27 29  1  0  0  0
 27 28  1  0  0  0
 27  1  1  0  0  0
 27 35  1  0  0  0
  1  2  1  0  0  0
  2  3  1  0  0  0
  3  4  1  0  0  0
  4 24  1  0  0  0
  5  4  1  0  0  0
  5  6  1  0  0  0
  5  1  1  0  0  0
  6  7  1  0  0  0
  6 23  1  0  0  0
  8  7  1  0  0  0
  8  9  1  0  0  0
  9 10  1  0  0  0
  9 22  1  0  0  0
  9  4  1  0  0  0
 10 11  1  0  0  0
 11 12  1  0  0  0
 11 21  1  0  0  0
 12 13  1  0  0  0
 12 17  1  0  0  0
 13 14  1  0  0  0
 13 20  1  0  0  0
 13  8  1  0  0  0
 14 15  1  0  0  0
 15 16  1  0  0  0
 16 17  1  0  0  0
 16 51  1  0  0  0
 17 18  1  0  0  0
 17 19  1  0  0  0
 52 51  1  0  0  0
 52 53  1  0  0  0
 53 54  1  0  0  0
 53 65  1  0  0  0
 54 55  1  0  0  0
 54 59  1  0  0  0
 55 56  1  0  0  0
 55 58  1  0  0  0
 56 57  1  0  0  0
 56 62  1  0  0  0
 57 52  1  0  0  0
 62 63  1  0  0  0
 66 65  1  0  0  0
 66 67  1  0  0  0
 67 68  1  0  0  0
 67 74  1  0  0  0
 68 69  1  0  0  0
 68 73  1  0  0  0
 69 70  1  0  0  0
 69 72  1  0  0  0
 70 71  1  0  0  0
 70 78  1  0  0  0
 71 66  1  0  0  0
 78 79  1  0  0  0
 36 35  1  0  0  0
 36 37  1  0  0  0
 37 38  1  0  0  0
 37 44  1  0  0  0
 38 39  1  0  0  0
 38 43  1  0  0  0
 39 40  1  0  0  0
 39 42  1  0  0  0
 40 41  1  0  0  0
 40 48  1  0  0  0
 41 36  1  0  0  0
 48 49  1  0  0  0
 63 64  1  0  0  0
 58 60  1  0  0  0
 59 61  1  0  0  0
 79 80  1  0  0  0
 72 75  1  0  0  0
 73 76  1  0  0  0
 74 77  1  0  0  0
 21 25  1  0  0  0
 23 26  1  0  0  0
 49 50  1  0  0  0
 42 45  1  0  0  0
 43 46  1  0  0  0
 44 47  1  0  0  0
M  END
>  <minimizedAffinity>
102.05386

>  <minimizedRMSD>
7.70875

$$$$
MCULE-4065282540 PubChem-74530774


 33 35  0  0  0  0  0  0  0  0999 V2000
   26.5414   -3.5562  -22.5695 N   0  0  0  0  0  0  0  0  0  0  0  0
   26.8493   -3.5433  -21.1845 C   0  0  0  0  0  0  0  0  0  0  0  0
   26.0135   -3.1952  -20.3067 O   0  0  0  0  0  0  0  0  0  0  0  0
   28.2070   -3.9758  -20.8803 C   0  0  0  0  0  0  0  0  0  0  0  0
   28.6653   -4.0329  -19.6223 C   0  0  0  0  0  0  0  0  0  0  0  0
   29.1203   -4.4213  -22.3695 S   0  0  0  0  0  0  0  0  0  0  0  0
   27.6459   -4.0240  -23.3391 C   0  0  0  0  0  0  0  0  0  0  0  0
   27.5853   -4.0498  -24.6413 N   0  0  0  0  0  0  0  0  0  0  0  0
   30.0011   -4.4501  -19.1523 C   0  0  0  0  0  0  0  0  0  0  0  0
   30.1955   -4.5764  -17.7727 C   0  0  0  0  0  0  0  0  0  0  0  0
   31.4404   -4.9690  -17.2541 C   0  0  0  0  0  0  0  0  0  0  0  0
   32.4963   -5.2320  -18.1314 C   0  0  0  0  0  0  0  0  0  0  0  0
   32.3134   -5.1075  -19.5105 C   0  0  0  0  0  0  0  0  0  0  0  0
   31.0711   -4.7182  -20.0176 C   0  0  0  0  0  0  0  0  0  0  0  0
   31.6544   -5.1018  -15.8780 O   0  0  0  0  0  0  0  0  0  0  0  0
   30.6349   -4.8947  -14.9040 C   0  0  0  0  0  0  0  0  0  0  0  0
   29.5934   -6.0047  -14.9633 C   0  0  0  0  0  0  0  0  0  0  0  0
   30.1648   -7.3048  -14.5069 C   0  0  0  0  0  0  0  0  0  0  0  0
   31.0551   -7.8824  -15.1842 O   0  0  0  0  0  0  0  0  0  0  0  0
   29.6951   -7.8918  -13.3401 O   0  0  0  0  0  0  0  0  0  0  0  0
   29.0325   -7.4639  -12.8343 H   0  0  0  0  0  0  0  0  0  0  0  0
   28.5800   -4.4902  -25.5839 C   0  0  0  0  0  0  0  0  0  0  0  0
   29.5919   -5.3852  -25.1983 C   0  0  0  0  0  0  0  0  0  0  0  0
   30.5267   -5.8568  -26.1195 C   0  0  0  0  0  0  0  0  0  0  0  0
   30.4557   -5.4503  -27.4495 C   0  0  0  0  0  0  0  0  0  0  0  0
   29.4474   -4.5766  -27.8562 C   0  0  0  0  0  0  0  0  0  0  0  0
   28.4977   -4.0906  -26.9426 C   0  0  0  0  0  0  0  0  0  0  0  0
   27.4522   -3.1665  -27.4479 C   0  0  0  0  0  0  0  0  0  0  0  0
   27.4137   -2.8680  -28.6717 O   0  0  0  0  0  0  0  0  0  0  0  0
   26.5053   -2.6090  -26.5968 O   0  0  0  0  0  0  0  0  0  0  0  0
   26.5159   -2.8174  -25.6834 H   0  0  0  0  0  0  0  0  0  0  0  0
   24.9866   -1.7204  -22.9798 C   0  0  0  0  0  0  0  0  0  0  0  0
   25.2415   -3.2082  -23.1310 C   0  0  0  0  0  0  0  0  0  0  0  0
 32 33  1  0  0  0
 33  1  1  0  0  0
  1  2  1  0  0  0
  2  3  2  0  0  0
  2  4  1  0  0  0
  4  5  2  0  0  0
  4  6  1  0  0  0
  5  9  1  0  0  0
  9 10  2  0  0  0
 10 11  1  0  0  0
 11 12  2  0  0  0
 11 15  1  0  0  0
 12 13  1  0  0  0
 13 14  2  0  0  0
 14  9  1  0  0  0
 15 16  1  0  0  0
 16 17  1  0  0  0
 17 18  1  0  0  0
 18 19  2  0  0  0
 18 20  1  0  0  0
  6  7  1  0  0  0
  7  8  2  0  0  0
  7  1  1  0  0  0
  8 22  1  0  0  0
 22 23  2  0  0  0
 23 24  1  0  0  0
 24 25  2  0  0  0
 25 26  1  0  0  0
 26 27  2  0  0  0
 27 28  1  0  0  0
 27 22  1  0  0  0
 28 29  2  0  0  0
 28 30  1  0  0  0
 20 21  1  0  0  0
 30 31  1  0  0  0
M  END
>  <minimizedAffinity>
102.10000

>  <minimizedRMSD>
2.56827

$$$$
MCULE-4499842526 MolPort-046-692-199 PubChem-9876882


 98101  0  0  0  0  0  0  0  0999 V2000
   27.7524    4.1749  -29.3094 C   0  0  0  0  0  0  0  0  0  0  0  0
   26.4389    4.3822  -28.5438 C   0  0  0  0  0  0  0  0  0  0  0  0
   25.9225    3.1322  -27.8274 C   0  0  0  0  0  0  0  0  0  0  0  0
   24.4898    3.3557  -27.3631 C   0  0  0  0  0  0  0  0  0  0  0  0
   24.4258    4.3876  -26.3262 N   0  0  0  0  0  0  0  0  0  0  0  0
   24.3759    4.1800  -24.9104 C   0  0  0  0  0  0  0  0  0  0  0  0
   24.2848    3.0118  -24.4337 O   0  0  0  0  0  0  0  0  0  0  0  0
   24.4214    5.3815  -24.0019 C   0  0  0  0  0  0  0  0  0  0  0  0
   23.1988    6.2948  -24.1131 C   0  0  0  0  0  0  0  0  0  0  0  0
   23.0375    6.8429  -22.6978 C   0  0  0  0  0  0  0  0  0  0  0  0
   23.5990    5.7805  -21.7798 C   0  0  0  0  0  0  0  0  0  0  0  0
   24.5422    5.0331  -22.5922 N   0  0  0  0  0  0  0  0  0  0  0  0
   25.7936    4.5872  -22.0474 C   0  0  0  0  0  0  0  0  0  0  0  0
   26.2438    3.4569  -22.3772 O   0  0  0  0  0  0  0  0  0  0  0  0
   26.5891    5.4594  -21.1131 C   0  0  0  0  0  0  0  0  0  0  0  0
   27.9690    4.9946  -21.0044 N   0  0  0  0  0  0  0  0  0  0  0  0
   29.0675    5.7406  -21.5364 C   0  0  0  0  0  0  0  0  0  0  0  0
   28.8677    6.8317  -22.1314 O   0  0  0  0  0  0  0  0  0  0  0  0
   30.4624    5.2241  -21.3436 C   0  0  0  0  0  0  0  0  0  0  0  0
   31.0306    4.7776  -22.6141 N   0  0  0  0  0  0  0  0  0  0  0  0
   30.5140    3.6695  -23.3575 C   0  0  0  0  0  0  0  0  0  0  0  0
   29.3643    3.2167  -23.1135 O   0  0  0  0  0  0  0  0  0  0  0  0
   31.3501    3.0001  -24.4064 C   0  0  0  0  0  0  0  0  0  0  0  0
   32.4727    2.2131  -23.7503 C   0  0  0  0  0  0  0  0  0  0  0  0
   33.7515    2.9993  -23.9891 C   0  0  0  0  0  0  0  0  0  0  0  0
   33.4585    3.9194  -25.1569 C   0  0  0  0  0  0  0  0  0  0  0  0
   32.0101    3.9636  -25.2741 N   0  0  0  0  0  0  0  0  0  0  0  0
   31.3540    4.7172  -26.2975 C   0  0  0  0  0  0  0  0  0  0  0  0
   32.0224    5.1657  -27.2666 O   0  0  0  0  0  0  0  0  0  0  0  0
   29.8877    5.0436  -26.1719 C   0  0  0  0  0  0  0  0  0  0  0  0
   29.0533    4.3201  -27.1257 N   0  0  0  0  0  0  0  0  0  0  0  0
   28.9785    4.5695  -28.5362 C   0  0  0  0  0  0  0  0  0  0  0  0
   29.9061    5.1766  -29.1296 O   0  0  0  0  0  0  0  0  0  0  0  0
   34.7791    2.1162  -24.3146 O   0  0  0  0  0  0  0  0  0  0  0  0
   21.6088    7.2016  -22.3233 C   0  0  0  0  0  0  0  0  0  0  0  0
   22.0596    5.5584  -24.4927 O   0  0  0  0  0  0  0  0  0  0  0  0
   23.9212    2.1548  -26.9328 O   0  0  0  0  0  0  0  0  0  0  0  0
   26.7330    2.8098  -26.7399 O   0  0  0  0  0  0  0  0  0  0  0  0
   24.4160    5.3223  -26.6350 H   0  0  0  0  0  0  0  0  0  0  0  0
   28.1493    4.1400  -20.5501 H   0  0  0  0  0  0  0  0  0  0  0  0
   31.8068    5.2630  -22.9761 H   0  0  0  0  0  0  0  0  0  0  0  0
   28.4908    3.5953  -26.7687 H   0  0  0  0  0  0  0  0  0  0  0  0
   34.5270    1.6010  -25.0969 H   0  0  0  0  0  0  0  0  0  0  0  0
   21.9079    4.8449  -23.8533 H   0  0  0  0  0  0  0  0  0  0  0  0
   24.4232    1.8118  -26.1769 H   0  0  0  0  0  0  0  0  0  0  0  0
   26.7239    3.5404  -26.1020 H   0  0  0  0  0  0  0  0  0  0  0  0
   29.5522    6.5441  -26.1357 C   0  0  0  0  0  0  0  0  0  0  0  0
   30.1363    7.2015  -24.9070 C   0  0  0  0  0  0  0  0  0  0  0  0
   30.0160    7.2016  -27.2763 O   0  0  0  0  0  0  0  0  0  0  0  0
   30.9830    7.1368  -27.3161 H   0  0  0  0  0  0  0  0  0  0  0  0
   28.0539    2.6311  -31.2841 C   0  0  0  0  0  0  0  0  0  0  0  0
   28.5242    3.5462  -32.0118 O   0  0  0  0  0  0  0  0  0  0  0  0
   27.8522    2.8415  -29.8873 N   0  0  0  0  0  0  0  0  0  0  0  0
   27.7779    2.0592  -29.2942 H   0  0  0  0  0  0  0  0  0  0  0  0
   27.6592    1.3288  -31.8867 C   0  0  0  0  0  0  0  0  0  0  0  0
   28.8193    0.7718  -32.7000 C   0  0  0  0  0  0  0  0  0  0  0  0
   28.3041    0.1253  -33.9758 C   0  0  0  0  0  0  0  0  0  0  0  0
   28.4266   -1.3876  -33.8827 C   0  0  0  0  0  0  0  0  0  0  0  0
   28.7224   -1.9358  -35.2629 C   0  0  0  0  0  0  0  0  0  0  0  0
   27.5047   -1.8251  -36.1570 C   0  0  0  0  0  0  0  0  0  0  0  0
   27.8889   -1.5892  -37.6046 C   0  0  0  0  0  0  0  0  0  0  0  0
   27.7233   -0.1245  -37.9725 C   0  0  0  0  0  0  0  0  0  0  0  0
   26.8040    0.0271  -39.1702 C   0  0  0  0  0  0  0  0  0  0  0  0
   25.5035    0.7254  -38.7894 C   0  0  0  0  0  0  0  0  0  0  0  0
   24.6014    0.9485  -39.9907 C   0  0  0  0  0  0  0  0  0  0  0  0
   23.1519    1.0527  -39.5455 C   0  0  0  0  0  0  0  0  0  0  0  0
   22.2470    1.2564  -40.7495 C   0  0  0  0  0  0  0  0  0  0  0  0
   20.4007    0.0810  -41.9421 C   0  0  0  0  0  0  0  0  0  0  0  0
   20.9192    0.5335  -40.5865 C   0  0  0  0  0  0  0  0  0  0  0  0
   25.9468    5.5819  -19.7320 C   0  0  0  0  0  0  0  0  0  0  0  0
   25.1879    6.7566  -19.6519 O   0  0  0  0  0  0  0  0  0  0  0  0
   25.7676    7.5249  -19.7726 H   0  0  0  0  0  0  0  0  0  0  0  0
   26.9918    5.5512  -18.6160 C   0  0  0  0  0  0  0  0  0  0  0  0
   26.5804    6.4265  -17.4803 C   0  0  0  0  0  0  0  0  0  0  0  0
   27.2859    6.4761  -16.4424 O   0  0  0  0  0  0  0  0  0  0  0  0
   25.3911    7.2016  -17.5757 N   0  0  0  0  0  0  0  0  0  0  0  0
   24.8406    7.1602  -18.3909 H   0  0  0  0  0  0  0  0  0  0  0  0
   25.1187    7.7793  -16.8266 H   0  0  0  0  0  0  0  0  0  0  0  0
   31.3654    6.2747  -20.6729 C   0  0  0  0  0  0  0  0  0  0  0  0
   32.4396    5.6676  -20.0156 O   0  0  0  0  0  0  0  0  0  0  0  0
   32.1052    5.1138  -19.2928 H   0  0  0  0  0  0  0  0  0  0  0  0
   30.6237    7.2016  -19.6953 C   0  0  0  0  0  0  0  0  0  0  0  0
   29.2460    7.2016  -19.9359 O   0  0  0  0  0  0  0  0  0  0  0  0
   28.8875    6.3172  -19.7622 H   0  0  0  0  0  0  0  0  0  0  0  0
   30.9198    6.9314  -18.2498 C   0  0  0  0  0  0  0  0  0  0  0  0
   32.1669    6.4075  -17.8990 C   0  0  0  0  0  0  0  0  0  0  0  0
   32.4932    6.1388  -16.5645 C   0  0  0  0  0  0  0  0  0  0  0  0
   31.5272    6.3971  -15.5607 C   0  0  0  0  0  0  0  0  0  0  0  0
   30.2789    6.9299  -15.9179 C   0  0  0  0  0  0  0  0  0  0  0  0
   29.9761    7.2016  -17.2498 C   0  0  0  0  0  0  0  0  0  0  0  0
   31.7629    6.1365  -14.2227 O   0  0  0  0  0  0  0  0  0  0  0  0
   32.5866    5.7806  -13.9527 H   0  0  0  0  0  0  0  0  0  0  0  0
   33.7764    5.6191  -16.3366 O   0  0  0  0  0  0  0  0  0  0  0  0
   34.7160    5.8028  -14.9222 S   0  0  0  0  0  0  0  0  0  0  0  0
   36.1679    5.9293  -15.2874 O   0  0  0  0  0  0  0  0  0  0  0  0
   34.5136    4.6289  -14.0091 O   0  0  0  0  0  0  0  0  0  0  0  0
   34.2312    7.2016  -14.1303 O   0  0  0  0  0  0  0  0  0  0  0  0
   34.3593    7.9650  -14.7149 H   0  0  0  0  0  0  0  0  0  0  0  0
 68 69  1  0  0  0
 69 67  1  0  0  0
 67 66  1  0  0  0
 66 65  1  0  0  0
 65 64  1  0  0  0
 64 63  1  0  0  0
 63 62  1  0  0  0
 62 61  1  0  0  0
 61 60  1  0  0  0
 60 59  1  0  0  0
 59 58  1  0  0  0
 58 57  1  0  0  0
 57 56  1  0  0  0
 56 55  1  0  0  0
 55 51  1  0  0  0
 51 52  2  0  0  0
 51 53  1  0  0  0
  1 53  1  0  0  0
  1  2  1  0  0  0
  2  3  1  0  0  0
  3  4  1  0  0  0
  3 38  1  0  0  0
  4  5  1  0  0  0
  4 37  1  0  0  0
  5  6  1  0  0  0
  6  7  2  0  0  0
  8  6  1  0  0  0
  8  9  1  0  0  0
  9 10  1  0  0  0
  9 36  1  0  0  0
 10 11  1  0  0  0
 10 35  1  0  0  0
 11 12  1  0  0  0
 12 13  1  0  0  0
 12  8  1  0  0  0
 13 14  2  0  0  0
 15 13  1  0  0  0
 15 16  1  0  0  0
 15 70  1  0  0  0
 16 17  1  0  0  0
 17 18  2  0  0  0
 19 17  1  0  0  0
 19 20  1  0  0  0
 19 79  1  0  0  0
 20 21  1  0  0  0
 21 22  2  0  0  0
 23 21  1  0  0  0
 23 24  1  0  0  0
 24 25  1  0  0  0
 25 26  1  0  0  0
 25 34  1  0  0  0
 26 27  1  0  0  0
 27 28  1  0  0  0
 27 23  1  0  0  0
 28 29  2  0  0  0
 30 28  1  0  0  0
 30 31  1  0  0  0
 30 47  1  0  0  0
 31 32  1  0  0  0
 32 33  2  0  0  0
 32  1  1  0  0  0
 47 48  1  0  0  0
 47 49  1  0  0  0
 79 82  1  0  0  0
 79 80  1  0  0  0
 82 85  1  0  0  0
 82 83  1  0  0  0
 85 86  2  0  0  0
 86 87  1  0  0  0
 87 88  2  0  0  0
 87 93  1  0  0  0
 88 89  1  0  0  0
 88 91  1  0  0  0
 89 90  2  0  0  0
 90 85  1  0  0  0
 93 94  1  0  0  0
 94 95  2  0  0  0
 94 96  2  0  0  0
 94 97  1  0  0  0
 70 73  1  0  0  0
 70 71  1  0  0  0
 73 74  1  0  0  0
 74 75  2  0  0  0
 74 76  1  0  0  0
 53 54  1  0  0  0
  5 39  1  0  0  0
 16 40  1  0  0  0
 20 41  1  0  0  0
 31 42  1  0  0  0
 49 50  1  0  0  0
 34 43  1  0  0  0
 91 92  1  0  0  0
 97 98  1  0  0  0
 83 84  1  0  0  0
 80 81  1  0  0  0
 76 77  1  0  0  0
 76 78  1  0  0  0
 71 72  1  0  0  0
 36 44  1  0  0  0
 37 45  1  0  0  0
 38 46  1  0  0  0
M  END
>  <minimizedAffinity>
106.46810

>  <minimizedRMSD>
6.39425

$$$$
MCULE-7364178948 MolPort-019-937-193 PubChem-56776335


 65 71  0  0  0  0  0  0  0  0999 V2000
   31.5313   -8.3721  -26.8080 C   0  0  0  0  0  0  0  0  0  0  0  0
   31.6981   -9.0046  -25.4205 C   0  0  0  0  0  0  0  0  0  0  0  0
   32.8465  -10.0260  -25.5025 C   0  0  0  0  0  0  0  0  0  0  0  0
   34.1965   -9.3522  -25.7035 C   0  0  0  0  0  0  0  0  0  0  0  0
   34.4750   -8.4481  -24.5044 C   0  0  0  0  0  0  0  0  0  0  0  0
   33.4362   -7.3033  -24.3969 C   0  0  0  0  0  0  0  0  0  0  0  0
   32.0151   -7.9163  -24.3561 C   0  0  0  0  0  0  0  0  0  0  0  0
   30.8939   -6.8714  -24.2226 C   0  0  0  0  0  0  0  0  0  0  0  0
   29.5145   -7.4202  -24.4864 C   0  0  0  0  0  0  0  0  0  0  0  0
   29.2486   -8.6952  -24.8385 C   0  0  0  0  0  0  0  0  0  0  0  0
   30.3767   -9.7083  -24.9795 C   0  0  0  0  0  0  0  0  0  0  0  0
   29.9763  -10.7753  -26.0029 C   0  0  0  0  0  0  0  0  0  0  0  0
   28.6974  -11.4704  -25.5725 C   0  0  0  0  0  0  0  0  0  0  0  0
   27.4771  -10.5423  -25.5615 C   0  0  0  0  0  0  0  0  0  0  0  0
   27.8129   -9.0507  -25.1997 C   0  0  0  0  0  0  0  0  0  0  0  0
   26.7658   -8.3947  -24.2843 C   0  0  0  0  0  0  0  0  0  0  0  0
   26.5250   -9.1662  -22.9783 C   0  0  0  0  0  0  0  0  0  0  0  0
   26.7756  -10.6768  -23.1299 C   0  0  0  0  0  0  0  0  0  0  0  0
   26.4904  -11.1512  -24.5543 C   0  0  0  0  0  0  0  0  0  0  0  0
   25.0774   -8.9595  -22.5858 C   0  0  0  0  0  0  0  0  0  0  0  0
   30.5770  -10.3816  -23.6157 C   0  0  0  0  0  0  0  0  0  0  0  0
   33.6600   -6.5450  -23.0800 C   0  0  0  0  0  0  0  0  0  0  0  0
   35.1022   -6.0906  -22.8617 C   0  0  0  0  0  0  0  0  0  0  0  0
   36.0988   -7.2527  -23.0018 C   0  0  0  0  0  0  0  0  0  0  0  0
   35.9621   -8.0337  -24.3292 C   0  0  0  0  0  0  0  0  0  0  0  0
   36.4577   -7.1871  -25.5036 C   0  0  0  0  0  0  0  0  0  0  0  0
   35.4247   -5.0248  -23.7074 O   0  0  0  0  0  0  0  0  0  0  0  0
   33.5435   -6.3329  -25.5751 C   0  0  0  0  0  0  0  0  0  0  0  0
   35.3619   -5.3144  -24.6310 H   0  0  0  0  0  0  0  0  0  0  0  0
   36.8391   -9.2888  -24.2095 C   0  0  0  0  0  0  0  0  0  0  0  0
   37.9871   -9.0618  -23.4448 O   0  0  0  0  0  0  0  0  0  0  0  0
   38.5281   -8.3775  -23.8691 H   0  0  0  0  0  0  0  0  0  0  0  0
   27.3858   -8.5713  -21.9028 C   0  0  0  0  0  0  0  0  0  0  0  0
   27.3746   -8.9857  -20.7535 O   0  0  0  0  0  0  0  0  0  0  0  0
   26.8220  -10.6127  -26.9182 C   0  0  0  0  0  0  0  0  0  0  0  0
   25.6803  -11.1293  -27.0587 O   0  0  0  0  0  0  0  0  0  0  0  0
   27.5146  -10.1376  -28.0347 O   0  0  0  0  0  0  0  0  0  0  0  0
   26.9243  -10.0589  -29.3302 C   0  0  0  0  0  0  0  0  0  0  0  0
   27.1708   -8.6949  -29.9774 C   0  0  0  0  0  0  0  0  0  0  0  0
   28.6438   -8.5518  -30.3214 C   0  0  0  0  0  0  0  0  0  0  0  0
   29.0935   -9.7264  -31.1848 C   0  0  0  0  0  0  0  0  0  0  0  0
   28.6979  -11.0560  -30.5349 C   0  0  0  0  0  0  0  0  0  0  0  0
   27.3266  -11.1395  -30.1632 O   0  0  0  0  0  0  0  0  0  0  0  0
   28.5318   -9.6452  -32.4634 O   0  0  0  0  0  0  0  0  0  0  0  0
   28.8708   -7.3484  -30.9902 O   0  0  0  0  0  0  0  0  0  0  0  0
   26.7770   -7.6743  -29.1092 O   0  0  0  0  0  0  0  0  0  0  0  0
   27.5650   -9.6850  -32.3949 H   0  0  0  0  0  0  0  0  0  0  0  0
   28.3619   -7.3364  -31.8159 H   0  0  0  0  0  0  0  0  0  0  0  0
   27.2936   -7.7294  -28.2901 H   0  0  0  0  0  0  0  0  0  0  0  0
   29.6514  -11.4704  -29.4233 C   0  0  0  0  0  0  0  0  0  0  0  0
   30.5724  -10.4525  -29.1888 O   0  0  0  0  0  0  0  0  0  0  0  0
   31.0799  -10.2830  -29.9978 H   0  0  0  0  0  0  0  0  0  0  0  0
   37.4155   -6.7926  -22.7826 O   0  0  0  0  0  0  0  0  0  0  0  0
   37.5240   -6.2934  -21.4610 C   0  0  0  0  0  0  0  0  0  0  0  0
   37.8065   -7.4145  -20.4413 C   0  0  0  0  0  0  0  0  0  0  0  0
   37.9221   -6.8296  -19.0351 C   0  0  0  0  0  0  0  0  0  0  0  0
   36.7897   -5.8475  -18.7583 C   0  0  0  0  0  0  0  0  0  0  0  0
   36.7230   -4.8442  -19.9029 C   0  0  0  0  0  0  0  0  0  0  0  0
   36.4002   -5.5141  -21.0959 O   0  0  0  0  0  0  0  0  0  0  0  0
   37.0226   -5.1754  -17.5613 O   0  0  0  0  0  0  0  0  0  0  0  0
   37.8982   -7.8604  -18.0925 O   0  0  0  0  0  0  0  0  0  0  0  0
   39.0036   -8.0477  -20.7699 O   0  0  0  0  0  0  0  0  0  0  0  0
   37.8603   -4.6900  -17.6207 H   0  0  0  0  0  0  0  0  0  0  0  0
   37.0571   -8.3391  -18.1581 H   0  0  0  0  0  0  0  0  0  0  0  0
   39.7279   -7.4030  -20.7447 H   0  0  0  0  0  0  0  0  0  0  0  0
  2  1  1  0  0  0
  2  3  1  0  0  0
  3  4  1  0  0  0
  5  4  1  0  0  0
  5  6  1  0  0  0
  6  7  1  0  0  0
  6 22  1  0  0  0
  6 28  1  0  0  0
  7  8  1  0  0  0
  7  2  1  0  0  0
  8  9  1  0  0  0
  9 10  2  0  0  0
 10 11  1  0  0  0
 11 12  1  0  0  0
 11 21  1  0  0  0
 11  2  1  0  0  0
 12 13  1  0  0  0
 13 14  1  0  0  0
 14 15  1  0  0  0
 14 35  1  0  0  0
 15 16  1  0  0  0
 15 10  1  0  0  0
 16 17  1  0  0  0
 17 18  1  0  0  0
 17 20  1  0  0  0
 17 33  1  0  0  0
 18 19  1  0  0  0
 19 14  1  0  0  0
 33 34  2  0  0  0
 35 36  2  0  0  0
 35 37  1  0  0  0
 38 37  1  0  0  0
 38 39  1  0  0  0
 39 40  1  0  0  0
 39 46  1  0  0  0
 40 41  1  0  0  0
 40 45  1  0  0  0
 41 42  1  0  0  0
 41 44  1  0  0  0
 42 43  1  0  0  0
 42 50  1  0  0  0
 43 38  1  0  0  0
 50 51  1  0  0  0
 22 23  1  0  0  0
 23 24  1  0  0  0
 23 27  1  0  0  0
 24 25  1  0  0  0
 24 53  1  0  0  0
 25 26  1  0  0  0
 25 30  1  0  0  0
 25  5  1  0  0  0
 30 31  1  0  0  0
 54 53  1  0  0  0
 54 55  1  0  0  0
 55 56  1  0  0  0
 55 62  1  0  0  0
 56 57  1  0  0  0
 56 61  1  0  0  0
 57 58  1  0  0  0
 57 60  1  0  0  0
 58 59  1  0  0  0
 59 54  1  0  0  0
 51 52  1  0  0  0
 44 47  1  0  0  0
 45 48  1  0  0  0
 46 49  1  0  0  0
 31 32  1  0  0  0
 60 63  1  0  0  0
 61 64  1  0  0  0
 62 65  1  0  0  0
 27 29  1  0  0  0
M  END
>  <minimizedAffinity>
108.28360

>  <minimizedRMSD>
7.32656

$$$$
MCULE-8858985465 MolPort-047-134-022 PubChem-131752575


 69 75  0  0  0  0  0  0  0  0999 V2000
   30.1143  -11.4459  -26.1213 C   0  0  0  0  0  0  0  0  0  0  0  0
   29.6237  -10.0071  -26.1577 C   0  0  0  0  0  0  0  0  0  0  0  0
   28.2624   -9.8186  -25.4729 C   0  0  0  0  0  0  0  0  0  0  0  0
   27.5879   -8.7042  -26.0504 O   0  0  0  0  0  0  0  0  0  0  0  0
   26.2702   -8.7908  -26.5127 C   0  0  0  0  0  0  0  0  0  0  0  0
   25.6008   -9.8400  -26.3020 O   0  0  0  0  0  0  0  0  0  0  0  0
   25.6308   -7.6464  -27.2090 C   0  0  0  0  0  0  0  0  0  0  0  0
   24.2423   -7.5015  -27.0889 C   0  0  0  0  0  0  0  0  0  0  0  0
   23.5717   -6.4498  -27.7111 C   0  0  0  0  0  0  0  0  0  0  0  0
   24.2832   -5.5217  -28.4751 C   0  0  0  0  0  0  0  0  0  0  0  0
   25.6684   -5.6525  -28.6254 C   0  0  0  0  0  0  0  0  0  0  0  0
   26.3546   -6.7132  -28.0003 C   0  0  0  0  0  0  0  0  0  0  0  0
   27.8139   -6.8600  -28.2215 C   0  0  0  0  0  0  0  0  0  0  0  0
   28.6835   -5.9644  -27.5642 C   0  0  0  0  0  0  0  0  0  0  0  0
   30.0649   -6.1851  -27.5631 C   0  0  0  0  0  0  0  0  0  0  0  0
   30.5922   -7.3239  -28.1734 C   0  0  0  0  0  0  0  0  0  0  0  0
   29.7415   -8.1988  -28.8678 C   0  0  0  0  0  0  0  0  0  0  0  0
   28.3555   -7.9565  -28.9486 C   0  0  0  0  0  0  0  0  0  0  0  0
   27.5842   -8.8612  -29.7236 C   0  0  0  0  0  0  0  0  0  0  0  0
   26.3610   -8.6572  -29.9427 O   0  0  0  0  0  0  0  0  0  0  0  0
   28.1458   -9.9472  -30.2484 O   0  0  0  0  0  0  0  0  0  0  0  0
   29.4308  -10.2477  -30.0938 C   0  0  0  0  0  0  0  0  0  0  0  0
   29.9325  -11.4519  -30.5899 C   0  0  0  0  0  0  0  0  0  0  0  0
   31.2540  -11.8235  -30.3227 C   0  0  0  0  0  0  0  0  0  0  0  0
   32.1047  -10.9696  -29.5910 C   0  0  0  0  0  0  0  0  0  0  0  0
   33.3904  -11.5191  -29.1018 C   0  0  0  0  0  0  0  0  0  0  0  0
   34.4768  -11.5978  -29.9958 C   0  0  0  0  0  0  0  0  0  0  0  0
   35.7086  -12.1041  -29.5684 C   0  0  0  0  0  0  0  0  0  0  0  0
   35.8675  -12.5347  -28.2500 C   0  0  0  0  0  0  0  0  0  0  0  0
   34.7975  -12.4649  -27.3599 C   0  0  0  0  0  0  0  0  0  0  0  0
   33.5481  -11.9676  -27.7584 C   0  0  0  0  0  0  0  0  0  0  0  0
   32.4622  -11.9353  -26.7361 C   0  0  0  0  0  0  0  0  0  0  0  0
   32.7358  -12.2010  -25.5324 O   0  0  0  0  0  0  0  0  0  0  0  0
   31.1470  -11.6151  -27.0851 O   0  0  0  0  0  0  0  0  0  0  0  0
   37.0891  -13.0349  -27.8169 O   0  0  0  0  0  0  0  0  0  0  0  0
   36.7766  -12.1765  -30.4561 O   0  0  0  0  0  0  0  0  0  0  0  0
   34.3361  -11.1646  -31.3113 O   0  0  0  0  0  0  0  0  0  0  0  0
   31.6398   -9.6849  -29.1962 C   0  0  0  0  0  0  0  0  0  0  0  0
   30.2833   -9.3668  -29.4098 C   0  0  0  0  0  0  0  0  0  0  0  0
   32.4376   -8.7157  -28.5361 C   0  0  0  0  0  0  0  0  0  0  0  0
   33.6763   -8.8836  -28.3828 O   0  0  0  0  0  0  0  0  0  0  0  0
   31.8885   -7.5981  -28.0663 O   0  0  0  0  0  0  0  0  0  0  0  0
   31.7103  -13.0661  -30.7541 O   0  0  0  0  0  0  0  0  0  0  0  0
   29.1036  -12.3056  -31.3102 O   0  0  0  0  0  0  0  0  0  0  0  0
   30.9092   -5.2939  -26.9094 O   0  0  0  0  0  0  0  0  0  0  0  0
   28.1722   -4.8683  -26.8750 O   0  0  0  0  0  0  0  0  0  0  0  0
   26.3595   -4.7344  -29.4111 O   0  0  0  0  0  0  0  0  0  0  0  0
   23.6130   -4.4716  -29.0929 O   0  0  0  0  0  0  0  0  0  0  0  0
   22.1951   -6.3320  -27.5663 O   0  0  0  0  0  0  0  0  0  0  0  0
   30.5931   -9.1470  -25.6377 O   0  0  0  0  0  0  0  0  0  0  0  0
   37.8122  -13.0842  -28.4108 H   0  0  0  0  0  0  0  0  0  0  0  0
   36.6706  -11.8877  -31.3412 H   0  0  0  0  0  0  0  0  0  0  0  0
   33.5149  -10.8239  -31.6071 H   0  0  0  0  0  0  0  0  0  0  0  0
   31.1422  -13.6309  -31.2401 H   0  0  0  0  0  0  0  0  0  0  0  0
   28.2181  -12.0576  -31.4898 H   0  0  0  0  0  0  0  0  0  0  0  0
   30.5561   -4.5290  -26.4993 H   0  0  0  0  0  0  0  0  0  0  0  0
   27.2489   -4.7086  -26.8675 H   0  0  0  0  0  0  0  0  0  0  0  0
   25.8988   -4.0311  -29.8245 H   0  0  0  0  0  0  0  0  0  0  0  0
   22.6855   -4.3840  -28.9923 H   0  0  0  0  0  0  0  0  0  0  0  0
   21.7229   -6.9574  -27.0527 H   0  0  0  0  0  0  0  0  0  0  0  0
   30.7499   -9.3627  -24.7051 H   0  0  0  0  0  0  0  0  0  0  0  0
   28.2914   -9.6713  -23.9427 C   0  0  0  0  0  0  0  0  0  0  0  0
   29.5228  -10.0543  -23.4010 O   0  0  0  0  0  0  0  0  0  0  0  0
   29.6627  -11.0019  -23.5540 H   0  0  0  0  0  0  0  0  0  0  0  0
   27.1217  -10.3516  -23.2347 C   0  0  0  0  0  0  0  0  0  0  0  0
   27.5666  -11.0972  -22.1377 O   0  0  0  0  0  0  0  0  0  0  0  0
   27.9978  -10.5075  -21.4994 H   0  0  0  0  0  0  0  0  0  0  0  0
   26.1199   -9.3217  -22.8084 C   0  0  0  0  0  0  0  0  0  0  0  0
   25.8513   -9.1440  -21.6305 O   0  0  0  0  0  0  0  0  0  0  0  0
  1  2  1  0  0  0
  2  3  1  0  0  0
  3  4  1  0  0  0
  4  5  1  0  0  0
  5  6  2  0  0  0
  5  7  1  0  0  0
  7  8  2  0  0  0
  8  9  1  0  0  0
  9 10  2  0  0  0
 10 11  1  0  0  0
 11 12  2  0  0  0
 12 13  1  0  0  0
 13 14  2  0  0  0
 14 15  1  0  0  0
 15 16  2  0  0  0
 16 17  1  0  0  0
 17 18  2  0  0  0
 18 19  1  0  0  0
 19 20  2  0  0  0
 19 21  1  0  0  0
 21 22  1  0  0  0
 22 23  2  0  0  0
 23 24  1  0  0  0
 24 25  2  0  0  0
 25 26  1  0  0  0
 26 27  2  0  0  0
 27 28  1  0  0  0
 28 29  2  0  0  0
 29 30  1  0  0  0
 30 31  2  0  0  0
 31 32  1  0  0  0
 32 33  2  0  0  0
 32 34  1  0  0  0
 29 35  1  0  0  0
 28 36  1  0  0  0
 27 37  1  0  0  0
 25 38  1  0  0  0
 38 39  2  0  0  0
 38 40  1  0  0  0
 40 41  2  0  0  0
 40 42  1  0  0  0
 24 43  1  0  0  0
 23 44  1  0  0  0
 15 45  1  0  0  0
 14 46  1  0  0  0
 11 47  1  0  0  0
 10 48  1  0  0  0
  9 49  1  0  0  0
  3 62  1  0  0  0
 62 65  1  0  0  0
 65 68  1  0  0  0
 68 69  2  0  0  0
 65 66  1  0  0  0
 62 63  1  0  0  0
  2 50  1  0  0  0
 34  1  1  0  0  0
 12  7  1  0  0  0
 18 13  1  0  0  0
 42 16  1  0  0  0
 39 17  1  0  0  0
 39 22  1  0  0  0
 31 26  1  0  0  0
 35 51  1  0  0  0
 36 52  1  0  0  0
 37 53  1  0  0  0
 43 54  1  0  0  0
 44 55  1  0  0  0
 45 56  1  0  0  0
 46 57  1  0  0  0
 47 58  1  0  0  0
 48 59  1  0  0  0
 49 60  1  0  0  0
 66 67  1  0  0  0
 63 64  1  0  0  0
 50 61  1  0  0  0
M  END
>  <minimizedAffinity>
108.73219

>  <minimizedRMSD>
9.42678

$$$$
MCULE-3597025847 MolPort-005-945-109 PubChem-45359838


 64 69  0  0  0  0  0  0  0  0999 V2000
   22.9139   -1.7962  -23.1417 C   0  0  0  0  0  0  0  0  0  0  0  0
   22.9753   -1.2068  -24.5631 C   0  0  0  0  0  0  0  0  0  0  0  0
   24.1038   -1.9234  -25.2986 C   0  0  0  0  0  0  0  0  0  0  0  0
   24.0809   -3.3151  -24.7110 C   0  0  0  0  0  0  0  0  0  0  0  0
   23.7989   -3.0511  -23.2360 C   0  0  0  0  0  0  0  0  0  0  0  0
   23.4326   -4.3612  -22.5254 C   0  0  0  0  0  0  0  0  0  0  0  0
   24.6597   -5.2840  -22.5867 C   0  0  0  0  0  0  0  0  0  0  0  0
   25.1630   -5.4738  -24.0393 C   0  0  0  0  0  0  0  0  0  0  0  0
   25.4014   -4.1258  -24.8025 C   0  0  0  0  0  0  0  0  0  0  0  0
   25.7624   -4.4056  -26.2701 C   0  0  0  0  0  0  0  0  0  0  0  0
   26.9332   -5.3772  -26.3925 C   0  0  0  0  0  0  0  0  0  0  0  0
   26.5646   -6.7022  -25.7200 C   0  0  0  0  0  0  0  0  0  0  0  0
   26.2714   -6.5394  -24.2060 C   0  0  0  0  0  0  0  0  0  0  0  0
   25.7606   -7.8785  -23.6613 C   0  0  0  0  0  0  0  0  0  0  0  0
   26.7458   -9.0120  -23.9320 C   0  0  0  0  0  0  0  0  0  0  0  0
   26.9560   -9.1810  -25.4348 C   0  0  0  0  0  0  0  0  0  0  0  0
   27.4809   -7.8906  -26.1005 C   0  0  0  0  0  0  0  0  0  0  0  0
   27.4283   -8.0793  -27.6089 C   0  0  0  0  0  0  0  0  0  0  0  0
   28.9309   -7.6245  -25.7064 C   0  0  0  0  0  0  0  0  0  0  0  0
   27.5203   -6.1263  -23.4250 C   0  0  0  0  0  0  0  0  0  0  0  0
   26.5535   -3.3326  -24.1709 C   0  0  0  0  0  0  0  0  0  0  0  0
   23.0796   -4.1517  -21.1948 O   0  0  0  0  0  0  0  0  0  0  0  0
   22.9223   -4.0769  -25.3832 C   0  0  0  0  0  0  0  0  0  0  0  0
   23.8273   -3.7558  -20.7203 H   0  0  0  0  0  0  0  0  0  0  0  0
   23.4299   -0.7581  -22.0838 C   0  0  0  0  0  0  0  0  0  0  0  0
   24.2387   -1.4946  -21.0254 C   0  0  0  0  0  0  0  0  0  0  0  0
   24.3739    0.2760  -22.7421 C   0  0  0  0  0  0  0  0  0  0  0  0
   25.7959    0.2303  -22.1938 C   0  0  0  0  0  0  0  0  0  0  0  0
   28.1500    0.0958  -20.3969 C   0  0  0  0  0  0  0  0  0  0  0  0
   26.9125    0.8566  -20.0436 C   0  0  0  0  0  0  0  0  0  0  0  0
   25.8502    0.9054  -20.8580 C   0  0  0  0  0  0  0  0  0  0  0  0
   26.8570    1.5734  -18.7394 C   0  0  0  0  0  0  0  0  0  0  0  0
   22.3554   -0.1467  -21.3772 O   0  0  0  0  0  0  0  0  0  0  0  0
   22.8114    0.8423  -20.4848 C   0  0  0  0  0  0  0  0  0  0  0  0
   22.2139    2.2007  -20.8643 C   0  0  0  0  0  0  0  0  0  0  0  0
   22.7278    3.2653  -19.8941 C   0  0  0  0  0  0  0  0  0  0  0  0
   22.6178    2.7982  -18.4400 C   0  0  0  0  0  0  0  0  0  0  0  0
   23.1466    1.3624  -18.3176 C   0  0  0  0  0  0  0  0  0  0  0  0
   22.4221    0.5141  -19.1749 O   0  0  0  0  0  0  0  0  0  0  0  0
   23.3615    3.6539  -17.6244 O   0  0  0  0  0  0  0  0  0  0  0  0
   22.0044    4.4459  -20.0650 O   0  0  0  0  0  0  0  0  0  0  0  0
   22.5859    2.5388  -22.1665 O   0  0  0  0  0  0  0  0  0  0  0  0
   24.2908    3.6386  -17.9020 H   0  0  0  0  0  0  0  0  0  0  0  0
   21.0686    4.2830  -19.8686 H   0  0  0  0  0  0  0  0  0  0  0  0
   23.5528    2.5909  -22.2234 H   0  0  0  0  0  0  0  0  0  0  0  0
   23.0070    0.8682  -16.8876 C   0  0  0  0  0  0  0  0  0  0  0  0
   22.0044    1.5860  -16.2365 O   0  0  0  0  0  0  0  0  0  0  0  0
   22.2350    2.5281  -16.2276 H   0  0  0  0  0  0  0  0  0  0  0  0
   27.8106  -10.2674  -25.6691 O   0  0  0  0  0  0  0  0  0  0  0  0
   28.7671   -9.7943  -26.5737 C   0  0  0  0  0  0  0  0  0  0  0  0
   30.1740  -10.1404  -26.0795 C   0  0  0  0  0  0  0  0  0  0  0  0
   31.2008   -9.5968  -27.0721 C   0  0  0  0  0  0  0  0  0  0  0  0
   30.8303   -9.9632  -28.5112 C   0  0  0  0  0  0  0  0  0  0  0  0
   29.3443   -9.6626  -28.7523 C   0  0  0  0  0  0  0  0  0  0  0  0
   28.5565  -10.3822  -27.8347 O   0  0  0  0  0  0  0  0  0  0  0  0
   31.6174   -9.2199  -29.3925 O   0  0  0  0  0  0  0  0  0  0  0  0
   32.4664  -10.1000  -26.7668 O   0  0  0  0  0  0  0  0  0  0  0  0
   30.3932   -9.5705  -24.8237 O   0  0  0  0  0  0  0  0  0  0  0  0
   31.4611   -8.2738  -29.2463 H   0  0  0  0  0  0  0  0  0  0  0  0
   32.4562  -11.0672  -26.8404 H   0  0  0  0  0  0  0  0  0  0  0  0
   30.3071   -8.6064  -24.8867 H   0  0  0  0  0  0  0  0  0  0  0  0
   28.9499  -10.0537  -30.1665 C   0  0  0  0  0  0  0  0  0  0  0  0
   27.6871   -9.5407  -30.4657 O   0  0  0  0  0  0  0  0  0  0  0  0
   27.0361   -9.9006  -29.8431 H   0  0  0  0  0  0  0  0  0  0  0  0
 29 30  1  0  0  0
 30 31  2  0  0  0
 30 32  1  0  0  0
 31 28  1  0  0  0
 28 27  1  0  0  0
 25 27  1  0  0  0
 25 26  1  0  0  0
 25  1  1  0  0  0
 25 33  1  0  0  0
  1  2  1  0  0  0
  2  3  1  0  0  0
  3  4  1  0  0  0
  4 23  1  0  0  0
  5  4  1  0  0  0
  5  6  1  0  0  0
  5  1  1  0  0  0
  6  7  1  0  0  0
  6 22  1  0  0  0
  8  7  1  0  0  0
  8  9  1  0  0  0
  9 10  1  0  0  0
  9 21  1  0  0  0
  9  4  1  0  0  0
 10 11  1  0  0  0
 12 11  1  0  0  0
 12 13  1  0  0  0
 13 14  1  0  0  0
 13 20  1  0  0  0
 13  8  1  0  0  0
 14 15  1  0  0  0
 15 16  1  0  0  0
 16 17  1  0  0  0
 16 49  1  0  0  0
 17 18  1  0  0  0
 17 19  1  0  0  0
 17 12  1  0  0  0
 50 49  1  0  0  0
 50 51  1  0  0  0
 51 52  1  0  0  0
 51 58  1  0  0  0
 52 53  1  0  0  0
 52 57  1  0  0  0
 53 54  1  0  0  0
 53 56  1  0  0  0
 54 55  1  0  0  0
 54 62  1  0  0  0
 55 50  1  0  0  0
 62 63  1  0  0  0
 34 33  1  0  0  0
 34 35  1  0  0  0
 35 36  1  0  0  0
 35 42  1  0  0  0
 36 37  1  0  0  0
 36 41  1  0  0  0
 37 38  1  0  0  0
 37 40  1  0  0  0
 38 39  1  0  0  0
 38 46  1  0  0  0
 39 34  1  0  0  0
 46 47  1  0  0  0
 63 64  1  0  0  0
 56 59  1  0  0  0
 57 60  1  0  0  0
 58 61  1  0  0  0
 22 24  1  0  0  0
 47 48  1  0  0  0
 40 43  1  0  0  0
 41 44  1  0  0  0
 42 45  1  0  0  0
M  END
>  <minimizedAffinity>
109.08328

>  <minimizedRMSD>
9.32310

$$$$
MCULE-1019559541


 42 48  0  0  0  0  0  0  0  0999 V2000
   30.0743    1.0354  -23.6446 N   0  0  0  0  0  0  0  0  0  0  0  0
   30.9452   -0.1250  -23.8247 C   0  0  0  0  0  0  0  0  0  0  0  0
   30.1909   -1.4092  -23.4787 C   0  0  0  0  0  0  0  0  0  0  0  0
   29.4344   -1.2721  -22.2299 N   0  0  0  0  0  0  0  0  0  0  0  0
   29.4708   -0.0119  -21.4884 C   0  0  0  0  0  0  0  0  0  0  0  0
   29.2433    1.1573  -22.4441 C   0  0  0  0  0  0  0  0  0  0  0  0
   28.9402    2.0140  -25.6853 C   0  0  0  0  0  0  0  0  0  0  0  0
   29.1331    3.1367  -26.3982 N   0  0  0  0  0  0  0  0  0  0  0  0
   30.1556    3.7364  -25.8539 O   0  0  0  0  0  0  0  0  0  0  0  0
   30.6601    3.0972  -24.8361 N   0  0  0  0  0  0  0  0  0  0  0  0
   29.9103    1.9895  -24.7037 C   0  0  0  0  0  0  0  0  0  0  0  0
   26.6625    1.1428  -26.4812 C   0  0  0  0  0  0  0  0  0  0  0  0
   26.1999   -0.0657  -26.8429 N   0  0  0  0  0  0  0  0  0  0  0  0
   27.1712   -0.9014  -26.6029 O   0  0  0  0  0  0  0  0  0  0  0  0
   28.2439   -0.3357  -26.1265 N   0  0  0  0  0  0  0  0  0  0  0  0
   27.9552    0.9751  -26.0309 C   0  0  0  0  0  0  0  0  0  0  0  0
   25.0774    3.0276  -25.7233 C   0  0  0  0  0  0  0  0  0  0  0  0
   24.6118    4.1468  -26.3040 N   0  0  0  0  0  0  0  0  0  0  0  0
   25.1342    4.1577  -27.4997 O   0  0  0  0  0  0  0  0  0  0  0  0
   25.9016    3.1327  -27.7497 N   0  0  0  0  0  0  0  0  0  0  0  0
   25.8946    2.3865  -26.6317 C   0  0  0  0  0  0  0  0  0  0  0  0
   24.6561    2.5639  -24.4360 N   0  0  0  0  0  0  0  0  0  0  0  0
   25.0278    1.3213  -23.9784 O   0  0  0  0  0  0  0  0  0  0  0  0
   23.8294    3.2298  -23.7803 O   0  0  0  0  0  0  0  0  0  0  0  0
   28.8519   -2.4475  -21.6478 C   0  0  0  0  0  0  0  0  0  0  0  0
   27.8261   -3.1217  -22.1962 N   0  0  0  0  0  0  0  0  0  0  0  0
   27.6342   -4.1529  -21.4222 O   0  0  0  0  0  0  0  0  0  0  0  0
   28.4517   -4.2086  -20.4079 N   0  0  0  0  0  0  0  0  0  0  0  0
   29.2542   -3.1353  -20.5181 C   0  0  0  0  0  0  0  0  0  0  0  0
   30.2531   -2.7502  -19.5068 C   0  0  0  0  0  0  0  0  0  0  0  0
   30.3010   -1.5464  -18.9096 N   0  0  0  0  0  0  0  0  0  0  0  0
   31.2607   -1.6238  -18.0324 O   0  0  0  0  0  0  0  0  0  0  0  0
   31.8458   -2.7867  -17.9983 N   0  0  0  0  0  0  0  0  0  0  0  0
   31.2169   -3.5428  -18.9157 C   0  0  0  0  0  0  0  0  0  0  0  0
   31.6126   -4.9135  -19.2867 C   0  0  0  0  0  0  0  0  0  0  0  0
   31.9654   -5.2802  -20.5315 N   0  0  0  0  0  0  0  0  0  0  0  0
   32.3433   -6.5251  -20.4480 O   0  0  0  0  0  0  0  0  0  0  0  0
   32.2762   -7.0165  -19.2422 N   0  0  0  0  0  0  0  0  0  0  0  0
   31.8149   -6.0153  -18.4756 C   0  0  0  0  0  0  0  0  0  0  0  0
   31.5453   -6.1540  -17.0758 N   0  0  0  0  0  0  0  0  0  0  0  0
   31.2243   -7.3911  -16.5692 O   0  0  0  0  0  0  0  0  0  0  0  0
   31.4298   -5.1502  -16.3442 O   0  0  0  0  0  0  0  0  0  0  0  0
 17 18  2  0  0  0
 18 19  1  0  0  0
 19 20  1  0  0  0
 20 21  2  0  0  0
 21 12  1  0  0  0
 12 13  2  0  0  0
 13 14  1  0  0  0
 14 15  1  0  0  0
 15 16  2  0  0  0
 16  7  1  0  0  0
  7  8  2  0  0  0
  8  9  1  0  0  0
  9 10  1  0  0  0
 10 11  2  0  0  0
 11  1  1  0  0  0
  1  2  1  0  0  0
  2  3  1  0  0  0
  3  4  1  0  0  0
  4  5  1  0  0  0
  5  6  1  0  0  0
  4 25  1  0  0  0
 25 26  2  0  0  0
 26 27  1  0  0  0
 27 28  1  0  0  0
 28 29  2  0  0  0
 29 30  1  0  0  0
 30 31  2  0  0  0
 31 32  1  0  0  0
 32 33  1  0  0  0
 33 34  2  0  0  0
 34 35  1  0  0  0
 35 36  2  0  0  0
 36 37  1  0  0  0
 37 38  1  0  0  0
 38 39  2  0  0  0
 39 40  1  0  0  0
 40 41  1  0  0  0
 40 42  2  0  0  0
 17 22  1  0  0  0
 22 23  1  0  0  0
 22 24  2  0  0  0
 21 17  1  0  0  0
 16 12  1  0  0  0
 11  7  1  0  0  0
  6  1  1  0  0  0
 29 25  1  0  0  0
 34 30  1  0  0  0
 39 35  1  0  0  0
M  CHG 1  22   1
M  CHG 1  23  -1
M  CHG 1  40   1
M  CHG 1  41  -1
M  END
>  <minimizedAffinity>
111.90090

>  <minimizedRMSD>
2.91307

$$$$
MCULE-9616913131 LN01792770 MolPort-000-760-871 PubChem-44661440


 77 85  0  0  0  0  0  0  0  0999 V2000
   24.3023   -3.6881  -31.7234 C   0  0  0  0  0  0  0  0  0  0  0  0
   25.0525   -4.5137  -32.7731 C   0  0  0  0  0  0  0  0  0  0  0  0
   26.4974   -4.0495  -32.9126 C   0  0  0  0  0  0  0  0  0  0  0  0
   26.5536   -2.8205  -33.5734 O   0  0  0  0  0  0  0  0  0  0  0  0
   27.1637   -3.9503  -31.5431 C   0  0  0  0  0  0  0  0  0  0  0  0
   26.2785   -3.2041  -30.5331 C   0  0  0  0  0  0  0  0  0  0  0  0
   26.3651   -1.6894  -30.6610 C   0  0  0  0  0  0  0  0  0  0  0  0
   24.9436   -3.6844  -30.4575 O   0  0  0  0  0  0  0  0  0  0  0  0
   26.0749   -2.1535  -33.0569 H   0  0  0  0  0  0  0  0  0  0  0  0
   24.0451   -2.3883  -32.1777 O   0  0  0  0  0  0  0  0  0  0  0  0
   18.7451    0.8727  -34.2508 C   0  0  0  0  0  0  0  0  0  0  0  0
   18.8876    0.2622  -32.9969 O   0  0  0  0  0  0  0  0  0  0  0  0
   17.3856    0.4798  -34.7945 C   0  0  0  0  0  0  0  0  0  0  0  0
   16.4107    1.3885  -34.0374 C   0  0  0  0  0  0  0  0  0  0  0  0
   17.2178    2.6084  -33.5695 C   0  0  0  0  0  0  0  0  0  0  0  0
   18.6388    2.3948  -34.1092 C   0  0  0  0  0  0  0  0  0  0  0  0
   18.6625    3.0968  -35.4794 C   0  0  0  0  0  0  0  0  0  0  0  0
   19.8338    2.8853  -33.2696 C   0  0  0  0  0  0  0  0  0  0  0  0
   21.1538    2.5821  -34.0049 C   0  0  0  0  0  0  0  0  0  0  0  0
   21.2726    1.1254  -34.5274 C   0  0  0  0  0  0  0  0  0  0  0  0
   22.1721    0.1925  -33.6741 C   0  0  0  0  0  0  0  0  0  0  0  0
   22.2593   -1.2489  -34.2656 C   0  0  0  0  0  0  0  0  0  0  0  0
   21.9067   -2.3565  -33.2660 C   0  0  0  0  0  0  0  0  0  0  0  0
   22.6803   -2.1810  -31.9574 C   0  0  0  0  0  0  0  0  0  0  0  0
   22.4724   -0.7966  -31.3281 C   0  0  0  0  0  0  0  0  0  0  0  0
   21.6822    0.1759  -32.2136 C   0  0  0  0  0  0  0  0  0  0  0  0
   21.4819   -1.4471  -35.5659 C   0  0  0  0  0  0  0  0  0  0  0  0
   20.0433   -0.9948  -35.3773 C   0  0  0  0  0  0  0  0  0  0  0  0
   19.9615    0.5127  -35.1172 C   0  0  0  0  0  0  0  0  0  0  0  0
   23.5823    0.7643  -33.7044 C   0  0  0  0  0  0  0  0  0  0  0  0
   19.7420    4.2568  -33.0230 O   0  0  0  0  0  0  0  0  0  0  0  0
   18.1240    0.4831  -32.4411 H   0  0  0  0  0  0  0  0  0  0  0  0
   19.7560    4.7383  -33.8649 H   0  0  0  0  0  0  0  0  0  0  0  0
   17.0896    2.8371  -32.0886 C   0  0  0  0  0  0  0  0  0  0  0  0
   17.2306    4.1961  -31.4661 C   0  0  0  0  0  0  0  0  0  0  0  0
   17.0372    3.9370  -30.0843 O   0  0  0  0  0  0  0  0  0  0  0  0
   16.8110    2.5869  -29.9185 C   0  0  0  0  0  0  0  0  0  0  0  0
   16.6218    2.0404  -28.8005 O   0  0  0  0  0  0  0  0  0  0  0  0
   16.8384    1.8934  -31.1852 C   0  0  0  0  0  0  0  0  0  0  0  0
   27.4417   -5.2343  -31.0653 O   0  0  0  0  0  0  0  0  0  0  0  0
   27.7486   -5.0654  -29.7086 C   0  0  0  0  0  0  0  0  0  0  0  0
   28.8669   -6.0090  -29.2654 C   0  0  0  0  0  0  0  0  0  0  0  0
   28.3784   -7.4459  -29.3105 C   0  0  0  0  0  0  0  0  0  0  0  0
   29.3477   -8.3034  -28.7885 O   0  0  0  0  0  0  0  0  0  0  0  0
   27.0523   -7.5904  -28.5544 C   0  0  0  0  0  0  0  0  0  0  0  0
   26.0398   -6.4771  -28.8862 C   0  0  0  0  0  0  0  0  0  0  0  0
   25.2333   -6.7814  -30.1399 C   0  0  0  0  0  0  0  0  0  0  0  0
   26.5901   -5.1662  -28.8917 O   0  0  0  0  0  0  0  0  0  0  0  0
   29.5178   -8.0732  -27.8617 H   0  0  0  0  0  0  0  0  0  0  0  0
   27.1789   -7.8693  -27.1704 O   0  0  0  0  0  0  0  0  0  0  0  0
   27.5812   -9.2093  -26.9866 C   0  0  0  0  0  0  0  0  0  0  0  0
   27.2927   -9.6856  -25.5610 C   0  0  0  0  0  0  0  0  0  0  0  0
   28.2071   -8.9755  -24.5686 C   0  0  0  0  0  0  0  0  0  0  0  0
   29.6637   -9.0369  -25.0298 C   0  0  0  0  0  0  0  0  0  0  0  0
   29.7395   -8.5704  -26.4910 C   0  0  0  0  0  0  0  0  0  0  0  0
   31.1699   -8.6037  -26.9955 C   0  0  0  0  0  0  0  0  0  0  0  0
   28.9442   -9.3915  -27.3192 O   0  0  0  0  0  0  0  0  0  0  0  0
   28.0741   -9.5797  -23.2901 O   0  0  0  0  0  0  0  0  0  0  0  0
   26.8666   -9.5691  -22.5914 C   0  0  0  0  0  0  0  0  0  0  0  0
   26.8807   -9.5564  -21.1064 C   0  0  0  0  0  0  0  0  0  0  0  0
   25.7648   -9.5659  -23.2027 O   0  0  0  0  0  0  0  0  0  0  0  0
   30.4364   -8.1971  -24.2183 O   0  0  0  0  0  0  0  0  0  0  0  0
   31.6353   -8.8848  -24.0125 C   0  0  0  0  0  0  0  0  0  0  0  0
   32.5226   -8.6121  -25.0754 O   0  0  0  0  0  0  0  0  0  0  0  0
   33.6675   -9.3915  -24.8382 C   0  0  0  0  0  0  0  0  0  0  0  0
   34.5265   -8.7797  -23.7105 C   0  0  0  0  0  0  0  0  0  0  0  0
   33.6506   -7.9555  -22.7595 C   0  0  0  0  0  0  0  0  0  0  0  0
   34.2560   -7.8470  -21.5063 O   0  0  0  0  0  0  0  0  0  0  0  0
   32.2212   -8.5063  -22.6356 C   0  0  0  0  0  0  0  0  0  0  0  0
   32.2043   -9.6325  -21.8101 O   0  0  0  0  0  0  0  0  0  0  0  0
   35.5349   -7.9571  -24.2193 O   0  0  0  0  0  0  0  0  0  0  0  0
   34.3412   -8.7287  -21.1109 H   0  0  0  0  0  0  0  0  0  0  0  0
   32.7517  -10.3300  -22.2035 H   0  0  0  0  0  0  0  0  0  0  0  0
   35.1354   -7.2158  -24.7006 H   0  0  0  0  0  0  0  0  0  0  0  0
   34.4237   -9.6856  -26.1320 C   0  0  0  0  0  0  0  0  0  0  0  0
   33.5526   -9.6837  -27.2239 O   0  0  0  0  0  0  0  0  0  0  0  0
   32.8781  -10.3698  -27.1007 H   0  0  0  0  0  0  0  0  0  0  0  0
 11 12  1  0  0  0
 11 13  1  0  0  0
 13 14  1  0  0  0
 14 15  1  0  0  0
 15 34  1  0  0  0
 34 35  1  0  0  0
 35 36  1  0  0  0
 36 37  1  0  0  0
 37 38  2  0  0  0
 37 39  1  0  0  0
 15 16  1  0  0  0
 16 17  1  0  0  0
 16 18  1  0  0  0
 18 19  1  0  0  0
 19 20  1  0  0  0
 20 21  1  0  0  0
 21 22  1  0  0  0
 22 23  1  0  0  0
 23 24  1  0  0  0
 24 25  1  0  0  0
 25 26  1  0  0  0
 24 10  1  0  0  0
 10  1  1  0  0  0
  1  2  1  0  0  0
  2  3  1  0  0  0
  3  4  1  0  0  0
  3  5  1  0  0  0
  5  6  1  0  0  0
  6  7  1  0  0  0
  6  8  1  0  0  0
  5 40  1  0  0  0
 40 41  1  0  0  0
 41 42  1  0  0  0
 42 43  1  0  0  0
 43 44  1  0  0  0
 43 45  1  0  0  0
 45 46  1  0  0  0
 46 47  1  0  0  0
 46 48  1  0  0  0
 45 50  1  0  0  0
 50 51  1  0  0  0
 51 52  1  0  0  0
 52 53  1  0  0  0
 53 58  1  0  0  0
 58 59  1  0  0  0
 59 60  1  0  0  0
 59 61  2  0  0  0
 53 54  1  0  0  0
 54 55  1  0  0  0
 55 56  1  0  0  0
 55 57  1  0  0  0
 54 62  1  0  0  0
 62 63  1  0  0  0
 63 64  1  0  0  0
 64 65  1  0  0  0
 65 75  1  0  0  0
 75 76  1  0  0  0
 65 66  1  0  0  0
 66 67  1  0  0  0
 67 68  1  0  0  0
 67 69  1  0  0  0
 69 70  1  0  0  0
 66 71  1  0  0  0
 22 27  1  0  0  0
 27 28  1  0  0  0
 28 29  1  0  0  0
 21 30  1  0  0  0
 18 31  1  0  0  0
 16 11  1  0  0  0
 29 20  1  0  0  0
 29 11  1  0  0  0
 39 34  2  0  0  0
 26 21  1  0  0  0
  8  1  1  0  0  0
 48 41  1  0  0  0
 57 51  1  0  0  0
 69 63  1  0  0  0
 12 32  1  0  0  0
  4  9  1  0  0  0
 44 49  1  0  0  0
 76 77  1  0  0  0
 68 72  1  0  0  0
 70 73  1  0  0  0
 71 74  1  0  0  0
 31 33  1  0  0  0
M  END
>  <minimizedAffinity>
112.39359

>  <minimizedRMSD>
7.11381

$$$$
MCULE-4738405612 MolPort-046-738-392 PubChem-137336835 ZINC001772702376


 44 49  0  0  0  0  0  0  0  0999 V2000
   27.7641   -8.5065  -25.7941 O   0  0  0  0  0  0  0  0  0  0  0  0
   28.6727   -7.6602  -26.0228 C   0  0  0  0  0  0  0  0  0  0  0  0
   29.6246   -7.3712  -24.9816 N   0  0  0  0  0  0  0  0  0  0  0  0
   30.8855   -6.6764  -25.1674 C   0  0  0  0  0  0  0  0  0  0  0  0
   31.4906   -6.5625  -23.7842 C   0  0  0  0  0  0  0  0  0  0  0  0
   32.9125   -6.8611  -23.8248 N   0  0  0  0  0  0  0  0  0  0  0  0
   33.8559   -6.0860  -23.0793 C   0  0  0  0  0  0  0  0  0  0  0  0
   33.4848   -5.0361  -22.4863 O   0  0  0  0  0  0  0  0  0  0  0  0
   35.2302   -6.5722  -22.9104 C   0  0  0  0  0  0  0  0  0  0  0  0
   35.8570   -7.3059  -23.9239 C   0  0  0  0  0  0  0  0  0  0  0  0
   37.1606   -7.7966  -23.7435 C   0  0  0  0  0  0  0  0  0  0  0  0
   37.8175   -7.5758  -22.5285 C   0  0  0  0  0  0  0  0  0  0  0  0
   37.1889   -6.8710  -21.4977 C   0  0  0  0  0  0  0  0  0  0  0  0
   35.9009   -6.3569  -21.7009 C   0  0  0  0  0  0  0  0  0  0  0  0
   37.8578   -6.7023  -20.2827 O   0  0  0  0  0  0  0  0  0  0  0  0
   37.1961   -6.3037  -19.0854 C   0  0  0  0  0  0  0  0  0  0  0  0
   36.7510   -7.5075  -18.3091 C   0  0  0  0  0  0  0  0  0  0  0  0
   37.5134   -8.5061  -18.2237 O   0  0  0  0  0  0  0  0  0  0  0  0
   35.5092   -7.5181  -17.6001 N   0  0  0  0  0  0  0  0  0  0  0  0
   34.5489   -6.4230  -17.6573 C   0  0  0  0  0  0  0  0  0  0  0  0
   33.4654   -6.6778  -18.6627 C   0  0  0  0  0  0  0  0  0  0  0  0
   33.6139   -7.6202  -19.6907 C   0  0  0  0  0  0  0  0  0  0  0  0
   32.6216   -7.7641  -20.6631 C   0  0  0  0  0  0  0  0  0  0  0  0
   31.4738   -6.9570  -20.6272 C   0  0  0  0  0  0  0  0  0  0  0  0
   31.3093   -6.0446  -19.5802 C   0  0  0  0  0  0  0  0  0  0  0  0
   32.3034   -5.9009  -18.6074 C   0  0  0  0  0  0  0  0  0  0  0  0
   30.5009   -7.0276  -21.6297 O   0  0  0  0  0  0  0  0  0  0  0  0
   30.7623   -7.5823  -22.9153 C   0  0  0  0  0  0  0  0  0  0  0  0
   29.4580   -7.8763  -23.6305 C   0  0  0  0  0  0  0  0  0  0  0  0
   33.2326   -7.6114  -24.3761 H   0  0  0  0  0  0  0  0  0  0  0  0
   35.2924   -8.3030  -17.0467 H   0  0  0  0  0  0  0  0  0  0  0  0
   28.7039   -6.9971  -27.3515 C   0  0  0  0  0  0  0  0  0  0  0  0
   28.7084   -5.6026  -27.4911 C   0  0  0  0  0  0  0  0  0  0  0  0
   28.7153   -5.0287  -28.7244 N   0  0  0  0  0  0  0  0  0  0  0  0
   28.7159   -5.7787  -29.8584 C   0  0  0  0  0  0  0  0  0  0  0  0
   28.7078   -7.1701  -29.7727 C   0  0  0  0  0  0  0  0  0  0  0  0
   28.7086   -7.9443  -30.9257 O   0  0  0  0  0  0  0  0  0  0  0  0
   28.6994   -7.7770  -28.5170 C   0  0  0  0  0  0  0  0  0  0  0  0
   28.7142   -7.5318  -31.7670 H   0  0  0  0  0  0  0  0  0  0  0  0
   37.8218   -8.5065  -24.7487 O   0  0  0  0  0  0  0  0  0  0  0  0
   37.3881   -8.5062  -26.1028 C   0  0  0  0  0  0  0  0  0  0  0  0
   38.0151   -7.3396  -26.8375 C   0  0  0  0  0  0  0  0  0  0  0  0
   37.7126   -7.4638  -28.3161 C   0  0  0  0  0  0  0  0  0  0  0  0
   36.9226   -6.4957  -27.4596 C   0  0  0  0  0  0  0  0  0  0  0  0
  1  2  2  0  0  0
  2 32  1  0  0  0
 32 33  2  0  0  0
 33 34  1  0  0  0
 34 35  2  0  0  0
 35 36  1  0  0  0
 36 37  1  0  0  0
 36 38  2  0  0  0
  2  3  1  0  0  0
  3  4  1  0  0  0
  5  4  1  0  0  0
  5  6  1  0  0  0
  6  7  1  0  0  0
  7  8  2  0  0  0
  7  9  1  0  0  0
  9 10  1  0  0  0
 10 11  2  0  0  0
 11 40  1  0  0  0
 40 41  1  0  0  0
 41 42  1  0  0  0
 42 43  1  0  0  0
 43 44  1  0  0  0
 11 12  1  0  0  0
 12 13  2  0  0  0
 13 14  1  0  0  0
 13 15  1  0  0  0
 15 16  1  0  0  0
 16 17  1  0  0  0
 17 18  2  0  0  0
 17 19  1  0  0  0
 19 20  1  0  0  0
 20 21  1  0  0  0
 21 22  2  0  0  0
 22 23  1  0  0  0
 23 24  2  0  0  0
 24 25  1  0  0  0
 25 26  2  0  0  0
 24 27  1  0  0  0
 27 28  1  0  0  0
 28 29  1  0  0  0
 38 32  1  0  0  0
 29  3  1  0  0  0
 28  5  1  0  0  0
 14  9  2  0  0  0
 26 21  1  0  0  0
 44 42  1  0  0  0
 37 39  1  0  0  0
  6 30  1  0  0  0
 19 31  1  0  0  0
M  END
>  <minimizedAffinity>
121.44004

>  <minimizedRMSD>
5.78711

$$$$
MCULE-6704121867


 64 69  0  0  0  0  0  0  0  0999 V2000
   28.8521    2.0955  -20.6760 C   0  0  0  0  0  0  0  0  0  0  0  0
   28.0092    0.9744  -20.5553 C   0  0  0  0  0  0  0  0  0  0  0  0
   28.3809   -0.2372  -21.1557 C   0  0  0  0  0  0  0  0  0  0  0  0
   29.5918   -0.3519  -21.8416 C   0  0  0  0  0  0  0  0  0  0  0  0
   30.4369    0.7559  -21.9481 C   0  0  0  0  0  0  0  0  0  0  0  0
   30.0665    1.9748  -21.3739 C   0  0  0  0  0  0  0  0  0  0  0  0
   28.4683    3.3118  -20.0988 O   0  0  0  0  0  0  0  0  0  0  0  0
   29.8212    5.2068  -20.6731 C   0  0  0  0  0  0  0  0  0  0  0  0
   28.4689    4.5403  -20.8150 C   0  0  0  0  0  0  0  0  0  0  0  0
   26.6969    1.0900  -19.8220 C   0  0  0  0  0  0  0  0  0  0  0  0
   25.5756    1.5933  -20.6918 C   0  0  0  0  0  0  0  0  0  0  0  0
   24.2625    1.6638  -20.1930 C   0  0  0  0  0  0  0  0  0  0  0  0
   23.8791    1.1805  -18.5471 Cl  0  0  0  0  0  0  0  0  0  0  0  0
   23.2308    2.1392  -21.0089 C   0  0  0  0  0  0  0  0  0  0  0  0
   23.4963    2.5455  -22.3174 C   0  0  0  0  0  0  0  0  0  0  0  0
   24.8007    2.4785  -22.8207 C   0  0  0  0  0  0  0  0  0  0  0  0
   25.8322    2.0009  -22.0087 C   0  0  0  0  0  0  0  0  0  0  0  0
   25.1128    2.9194  -24.2162 C   0  0  0  0  0  0  0  0  0  0  0  0
   24.8860    1.7890  -25.2317 C   0  0  0  0  0  0  0  0  0  0  0  0
   25.6973    0.6953  -24.9209 O   0  0  0  0  0  0  0  0  0  0  0  0
   25.2318    2.2911  -26.6350 C   0  0  0  0  0  0  0  0  0  0  0  0
   24.7925    1.3697  -27.5891 O   0  0  0  0  0  0  0  0  0  0  0  0
   24.6064    3.6610  -26.9102 C   0  0  0  0  0  0  0  0  0  0  0  0
   25.1710    4.1977  -28.0703 O   0  0  0  0  0  0  0  0  0  0  0  0
   24.8688    4.5921  -25.7186 C   0  0  0  0  0  0  0  0  0  0  0  0
   24.3195    4.0332  -24.5502 O   0  0  0  0  0  0  0  0  0  0  0  0
   26.6287    0.9644  -24.9524 H   0  0  0  0  0  0  0  0  0  0  0  0
   23.8286    1.2784  -27.5306 H   0  0  0  0  0  0  0  0  0  0  0  0
   26.1289    4.2919  -27.9499 H   0  0  0  0  0  0  0  0  0  0  0  0
   24.2367    5.9533  -25.9637 C   0  0  0  0  0  0  0  0  0  0  0  0
   25.0051    6.6734  -26.8809 O   0  0  0  0  0  0  0  0  0  0  0  0
   25.8998    6.7966  -26.5270 H   0  0  0  0  0  0  0  0  0  0  0  0
   26.3412   -0.1282  -19.0136 C   0  0  0  0  0  0  0  0  0  0  0  0
   25.8443   -1.2908  -19.6247 C   0  0  0  0  0  0  0  0  0  0  0  0
   25.5811   -2.4306  -18.8609 C   0  0  0  0  0  0  0  0  0  0  0  0
   25.8171   -2.4257  -17.4817 C   0  0  0  0  0  0  0  0  0  0  0  0
   26.3140   -1.2617  -16.8701 C   0  0  0  0  0  0  0  0  0  0  0  0
   26.5780   -0.1214  -17.6345 C   0  0  0  0  0  0  0  0  0  0  0  0
   25.5490   -3.5858  -16.7461 O   0  0  0  0  0  0  0  0  0  0  0  0
   25.9790   -4.8837  -17.1487 C   0  0  0  0  0  0  0  0  0  0  0  0
   25.0065   -5.9362  -16.6459 C   0  0  0  0  0  0  0  0  0  0  0  0
   30.0034   -1.6666  -22.4159 C   0  0  0  0  0  0  0  0  0  0  0  0
   29.7057   -2.7743  -21.4533 C   0  0  0  0  0  0  0  0  0  0  0  0
   28.4382   -3.3857  -21.4097 C   0  0  0  0  0  0  0  0  0  0  0  0
   27.1605   -2.9423  -22.5326 Cl  0  0  0  0  0  0  0  0  0  0  0  0
   28.1741   -4.3677  -20.4499 C   0  0  0  0  0  0  0  0  0  0  0  0
   29.1625   -4.7445  -19.5372 C   0  0  0  0  0  0  0  0  0  0  0  0
   30.4316   -4.1504  -19.5850 C   0  0  0  0  0  0  0  0  0  0  0  0
   30.6908   -3.1585  -20.5355 C   0  0  0  0  0  0  0  0  0  0  0  0
   31.5076   -4.4916  -18.5822 C   0  0  0  0  0  0  0  0  0  0  0  0
   31.8494   -5.9852  -18.4108 C   0  0  0  0  0  0  0  0  0  0  0  0
   31.9373   -6.6244  -19.6515 O   0  0  0  0  0  0  0  0  0  0  0  0
   30.8258   -6.6878  -17.5195 C   0  0  0  0  0  0  0  0  0  0  0  0
   31.2999   -7.9516  -17.1652 O   0  0  0  0  0  0  0  0  0  0  0  0
   30.5563   -5.8659  -16.2589 C   0  0  0  0  0  0  0  0  0  0  0  0
   29.4747   -6.4250  -15.5718 O   0  0  0  0  0  0  0  0  0  0  0  0
   30.2352   -4.4205  -16.6568 C   0  0  0  0  0  0  0  0  0  0  0  0
   31.3283   -3.8379  -17.3390 O   0  0  0  0  0  0  0  0  0  0  0  0
   31.0784   -6.5794  -20.1000 H   0  0  0  0  0  0  0  0  0  0  0  0
   32.1300   -7.8589  -16.6719 H   0  0  0  0  0  0  0  0  0  0  0  0
   28.6914   -6.4213  -16.1439 H   0  0  0  0  0  0  0  0  0  0  0  0
   29.9120   -3.5856  -15.4280 C   0  0  0  0  0  0  0  0  0  0  0  0
   31.0908   -3.2611  -14.7537 O   0  0  0  0  0  0  0  0  0  0  0  0
   31.5397   -4.0753  -14.4771 H   0  0  0  0  0  0  0  0  0  0  0  0
  8  9  1  0  0  0
  9  7  1  0  0  0
  7  1  1  0  0  0
  1  2  2  0  0  0
  2 10  1  0  0  0
 10 33  1  0  0  0
 33 34  2  0  0  0
 34 35  1  0  0  0
 35 36  2  0  0  0
 36 39  1  0  0  0
 39 40  1  0  0  0
 40 41  1  0  0  0
 36 37  1  0  0  0
 37 38  2  0  0  0
 10 11  1  0  0  0
 11 12  2  0  0  0
 12 13  1  0  0  0
 12 14  1  0  0  0
 14 15  2  0  0  0
 15 16  1  0  0  0
 18 16  1  0  0  0
 18 19  1  0  0  0
 19 20  1  0  0  0
 19 21  1  0  0  0
 21 22  1  0  0  0
 21 23  1  0  0  0
 23 24  1  0  0  0
 23 25  1  0  0  0
 25 30  1  0  0  0
 30 31  1  0  0  0
 25 26  1  0  0  0
 16 17  2  0  0  0
  2  3  1  0  0  0
  3  4  2  0  0  0
  4 42  1  0  0  0
 42 43  1  0  0  0
 43 44  2  0  0  0
 44 45  1  0  0  0
 44 46  1  0  0  0
 46 47  2  0  0  0
 47 48  1  0  0  0
 50 48  1  0  0  0
 50 51  1  0  0  0
 51 52  1  0  0  0
 51 53  1  0  0  0
 53 54  1  0  0  0
 53 55  1  0  0  0
 55 56  1  0  0  0
 55 57  1  0  0  0
 57 62  1  0  0  0
 62 63  1  0  0  0
 57 58  1  0  0  0
 48 49  2  0  0  0
  4  5  1  0  0  0
  5  6  2  0  0  0
  6  1  1  0  0  0
 38 33  1  0  0  0
 17 11  1  0  0  0
 49 43  1  0  0  0
 26 18  1  0  0  0
 58 50  1  0  0  0
 20 27  1  0  0  0
 22 28  1  0  0  0
 24 29  1  0  0  0
 31 32  1  0  0  0
 52 59  1  0  0  0
 54 60  1  0  0  0
 56 61  1  0  0  0
 63 64  1  0  0  0
M  END
>  <minimizedAffinity>
130.19664

>  <minimizedRMSD>
3.14845

$$$$
MCULE-5647744737 CSC028169045 LN01403866 MolPort-002-459-039 PubChem-3538161


 36 39  0  0  0  0  0  0  0  0999 V2000
   29.8335   -3.2849  -22.0052 C   0  0  0  0  0  0  0  0  0  0  0  0
   30.2084   -4.4094  -21.5000 N   0  0  0  0  0  0  0  0  0  0  0  0
   31.5234   -4.3118  -21.0554 N   0  0  0  0  0  0  0  0  0  0  0  0
   32.0768   -2.9947  -21.3227 C   0  0  0  0  0  0  0  0  0  0  0  0
   30.9133   -2.2451  -21.9796 C   0  0  0  0  0  0  0  0  0  0  0  0
   26.2004   -3.8359  -22.9001 C   0  0  0  0  0  0  0  0  0  0  0  0
   25.9095   -2.6441  -23.5792 C   0  0  0  0  0  0  0  0  0  0  0  0
   26.8963   -1.6692  -23.7434 C   0  0  0  0  0  0  0  0  0  0  0  0
   28.1785   -1.8803  -23.2297 C   0  0  0  0  0  0  0  0  0  0  0  0
   28.4828   -3.0673  -22.5498 C   0  0  0  0  0  0  0  0  0  0  0  0
   27.4857   -4.0408  -22.3888 C   0  0  0  0  0  0  0  0  0  0  0  0
   25.2086   -4.8496  -22.7155 N   0  0  0  0  0  0  0  0  0  0  0  0
   25.5060   -5.7430  -22.4279 H   0  0  0  0  0  0  0  0  0  0  0  0
   22.8778   -3.4824  -21.7370 C   0  0  0  0  0  0  0  0  0  0  0  0
   23.5133   -4.5951  -22.9692 S   0  0  0  0  0  0  0  0  0  0  0  0
   22.7971   -5.9108  -22.8551 O   0  0  0  0  0  0  0  0  0  0  0  0
   23.2847   -4.0289  -24.3422 O   0  0  0  0  0  0  0  0  0  0  0  0
   32.4967   -2.3235  -20.0504 C   0  0  0  0  0  0  0  0  0  0  0  0
   31.7574   -2.4753  -18.8677 C   0  0  0  0  0  0  0  0  0  0  0  0
   32.1898   -1.8677  -17.6870 C   0  0  0  0  0  0  0  0  0  0  0  0
   33.3643   -1.1106  -17.6805 C   0  0  0  0  0  0  0  0  0  0  0  0
   34.1135   -0.9532  -18.8548 C   0  0  0  0  0  0  0  0  0  0  0  0
   33.6697   -1.5625  -20.0382 C   0  0  0  0  0  0  0  0  0  0  0  0
   35.3249   -0.1864  -18.8401 N   0  0  0  0  0  0  0  0  0  0  0  0
   35.8159    0.3137  -17.6555 O   0  0  0  0  0  0  0  0  0  0  0  0
   35.9558    0.0230  -19.8970 O   0  0  0  0  0  0  0  0  0  0  0  0
   32.4585   -5.6949  -20.5975 S   0  0  0  0  0  0  0  0  0  0  0  0
   32.3629   -6.7457  -21.6681 O   0  0  0  0  0  0  0  0  0  0  0  0
   33.8983   -5.2927  -20.4397 O   0  0  0  0  0  0  0  0  0  0  0  0
   31.8476   -6.3578  -19.0922 C   0  0  0  0  0  0  0  0  0  0  0  0
   30.7647   -7.2440  -19.1092 C   0  0  0  0  0  0  0  0  0  0  0  0
   30.2469   -7.7415  -17.9094 C   0  0  0  0  0  0  0  0  0  0  0  0
   30.8089   -7.3507  -16.6904 C   0  0  0  0  0  0  0  0  0  0  0  0
   30.3041   -7.8293  -15.5281 F   0  0  0  0  0  0  0  0  0  0  0  0
   31.8925   -6.4675  -16.6707 C   0  0  0  0  0  0  0  0  0  0  0  0
   32.4108   -5.9707  -17.8705 C   0  0  0  0  0  0  0  0  0  0  0  0
 14 15  1  0  0  0
 15 16  2  0  0  0
 15 17  2  0  0  0
 15 12  1  0  0  0
 12  6  1  0  0  0
  6  7  2  0  0  0
  7  8  1  0  0  0
  8  9  2  0  0  0
  9 10  1  0  0  0
 10 11  2  0  0  0
 10  1  1  0  0  0
 11  6  1  0  0  0
  1  2  2  0  0  0
  2  3  1  0  0  0
  3  4  1  0  0  0
  3 27  1  0  0  0
  4  5  1  0  0  0
  4 18  1  0  0  0
  5  1  1  0  0  0
 18 19  2  0  0  0
 19 20  1  0  0  0
 20 21  2  0  0  0
 21 22  1  0  0  0
 22 23  2  0  0  0
 22 24  1  0  0  0
 23 18  1  0  0  0
 24 25  1  0  0  0
 24 26  2  0  0  0
 27 28  2  0  0  0
 27 29  2  0  0  0
 27 30  1  0  0  0
 30 31  2  0  0  0
 31 32  1  0  0  0
 32 33  2  0  0  0
 33 34  1  0  0  0
 33 35  1  0  0  0
 35 36  2  0  0  0
 36 30  1  0  0  0
 12 13  1  0  0  0
M  CHG 1  24   1
M  CHG 1  25  -1
M  END
>  <minimizedAffinity>
131.07630

>  <minimizedRMSD>
9.29888

$$$$
MCULE-2000312257 MolPort-039-339-026 PubChem-72941763


 50 58  0  0  0  0  0  0  0  0999 V2000
   31.6243   -6.6361  -18.0389 C   0  0  0  0  0  0  0  0  0  0  0  0
   32.8535   -6.8683  -18.8930 C   0  0  0  0  0  0  0  0  0  0  0  0
   34.0855   -6.5183  -18.0614 C   0  0  0  0  0  0  0  0  0  0  0  0
   35.3845   -6.5159  -18.8971 C   0  0  0  0  0  0  0  0  0  0  0  0
   36.1056   -5.3284  -18.6277 O   0  0  0  0  0  0  0  0  0  0  0  0
   37.4563   -5.6884  -18.4868 C   0  0  0  0  0  0  0  0  0  0  0  0
   37.5181   -7.1529  -18.1645 C   0  0  0  0  0  0  0  0  0  0  0  0
   38.7058   -8.0384  -18.4762 C   0  0  0  0  0  0  0  0  0  0  0  0
   36.6631   -7.5960  -17.1470 O   0  0  0  0  0  0  0  0  0  0  0  0
   36.2205   -7.7219  -18.4857 C   0  0  0  0  0  0  0  0  0  0  0  0
   35.1372   -6.6186  -20.2900 O   0  0  0  0  0  0  0  0  0  0  0  0
   34.2055   -5.6335  -20.6756 C   0  0  0  0  0  0  0  0  0  0  0  0
   34.1154   -5.6067  -22.2051 C   0  0  0  0  0  0  0  0  0  0  0  0
   32.6306   -5.7303  -22.5173 C   0  0  0  0  0  0  0  0  0  0  0  0
   32.0428   -4.3122  -22.4765 C   0  0  0  0  0  0  0  0  0  0  0  0
   32.2691   -6.3258  -23.8525 C   0  0  0  0  0  0  0  0  0  0  0  0
   33.0377   -6.1187  -24.9389 C   0  0  0  0  0  0  0  0  0  0  0  0
   32.6637   -6.6609  -26.2887 C   0  0  0  0  0  0  0  0  0  0  0  0
   31.1454   -6.5677  -26.5158 C   0  0  0  0  0  0  0  0  0  0  0  0
   30.3274   -7.1739  -25.3553 C   0  0  0  0  0  0  0  0  0  0  0  0
   30.9271   -8.3636  -24.6187 C   0  0  0  0  0  0  0  0  0  0  0  0
   30.9007   -6.9867  -23.9565 C   0  0  0  0  0  0  0  0  0  0  0  0
   29.9304   -6.9555  -22.7518 C   0  0  0  0  0  0  0  0  0  0  0  0
   30.5486   -6.5552  -21.3850 C   0  0  0  0  0  0  0  0  0  0  0  0
   32.0917   -6.6182  -21.3783 C   0  0  0  0  0  0  0  0  0  0  0  0
   32.5447   -8.0864  -21.5389 C   0  0  0  0  0  0  0  0  0  0  0  0
   32.7939   -5.9967  -20.1603 C   0  0  0  0  0  0  0  0  0  0  0  0
   28.8123   -7.2109  -25.5083 C   0  0  0  0  0  0  0  0  0  0  0  0
   28.4527   -7.8012  -26.8658 C   0  0  0  0  0  0  0  0  0  0  0  0
   29.1473   -7.0304  -27.9958 C   0  0  0  0  0  0  0  0  0  0  0  0
   30.6892   -7.1129  -27.8880 C   0  0  0  0  0  0  0  0  0  0  0  0
   31.3040   -6.2532  -28.9815 C   0  0  0  0  0  0  0  0  0  0  0  0
   31.1596   -8.5524  -28.0883 C   0  0  0  0  0  0  0  0  0  0  0  0
   29.9934   -7.3610  -20.3504 O   0  0  0  0  0  0  0  0  0  0  0  0
   29.0406   -6.8779  -19.4509 C   0  0  0  0  0  0  0  0  0  0  0  0
   27.9994   -7.7981  -18.9252 C   0  0  0  0  0  0  0  0  0  0  0  0
   29.0566   -5.6760  -19.0727 O   0  0  0  0  0  0  0  0  0  0  0  0
   28.6975   -7.5094  -29.2425 O   0  0  0  0  0  0  0  0  0  0  0  0
   27.9181   -6.5076  -29.8624 C   0  0  0  0  0  0  0  0  0  0  0  0
   28.4437   -6.1242  -31.1143 O   0  0  0  0  0  0  0  0  0  0  0  0
   27.4303   -5.3830  -31.7413 C   0  0  0  0  0  0  0  0  0  0  0  0
   27.2925   -3.9968  -31.0988 C   0  0  0  0  0  0  0  0  0  0  0  0
   25.9563   -3.6001  -31.1358 O   0  0  0  0  0  0  0  0  0  0  0  0
   27.8055   -3.9644  -29.6513 C   0  0  0  0  0  0  0  0  0  0  0  0
   29.1507   -3.5939  -29.6447 O   0  0  0  0  0  0  0  0  0  0  0  0
   27.6443   -5.3082  -28.9289 C   0  0  0  0  0  0  0  0  0  0  0  0
   26.3562   -5.4124  -28.4048 O   0  0  0  0  0  0  0  0  0  0  0  0
   25.4196   -4.2232  -30.6215 H   0  0  0  0  0  0  0  0  0  0  0  0
   29.6704   -4.2547  -30.1285 H   0  0  0  0  0  0  0  0  0  0  0  0
   25.7100   -5.3863  -29.1277 H   0  0  0  0  0  0  0  0  0  0  0  0
  2  1  1  0  0  0
  2  3  1  0  0  0
  4  3  1  0  0  0
  4  5  1  0  0  0
  5  6  1  0  0  0
  6  7  1  0  0  0
  7  8  1  0  0  0
  7  9  1  0  0  0
 10  9  1  0  0  0
  4 11  1  0  0  0
 12 11  1  0  0  0
 12 13  1  0  0  0
 13 14  1  0  0  0
 14 15  1  0  0  0
 14 16  1  0  0  0
 16 17  2  0  0  0
 17 18  1  0  0  0
 19 18  1  0  0  0
 19 20  1  0  0  0
 20 21  1  0  0  0
 22 21  1  0  0  0
 22 23  1  0  0  0
 23 24  1  0  0  0
 24 34  1  0  0  0
 34 35  1  0  0  0
 35 36  1  0  0  0
 35 37  2  0  0  0
 24 25  1  0  0  0
 25 26  1  0  0  0
 25 27  1  0  0  0
 20 28  1  0  0  0
 28 29  1  0  0  0
 29 30  1  0  0  0
 30 38  1  0  0  0
 39 38  1  0  0  0
 39 40  1  0  0  0
 40 41  1  0  0  0
 41 42  1  0  0  0
 42 43  1  0  0  0
 42 44  1  0  0  0
 44 45  1  0  0  0
 44 46  1  0  0  0
 46 47  1  0  0  0
 30 31  1  0  0  0
 31 32  1  0  0  0
 31 33  1  0  0  0
 27  2  1  0  0  0
 46 39  1  0  0  0
 10  4  1  0  0  0
 27 12  1  0  0  0
 10  7  1  0  0  0
 25 14  1  0  0  0
 22 16  1  0  0  0
 31 19  1  0  0  0
 22 20  1  0  0  0
 43 48  1  0  0  0
 45 49  1  0  0  0
 47 50  1  0  0  0
M  END
>  <minimizedAffinity>
132.00326

>  <minimizedRMSD>
4.20861

$$$$
MCULE-4141384040 MCULE-8512480834 CHEMBL1200645 MolPort-016-638-412 PubChem-122638977 PubChem-6918092 ZINC000003920020


 50 56  0  0  0  0  0  0  0  0999 V2000
   28.8368   -0.5530  -23.6550 C   0  0  0  0  0  0  0  0  0  0  0  0
   29.8600    0.4014  -24.2679 C   0  0  0  0  0  0  0  0  0  0  0  0
   29.0942    1.4358  -25.0506 C   0  0  0  0  0  0  0  0  0  0  0  0
   29.9724    2.6830  -25.0767 C   0  0  0  0  0  0  0  0  0  0  0  0
   30.7423    2.5622  -23.8875 O   0  0  0  0  0  0  0  0  0  0  0  0
   30.6369    1.2823  -23.3705 C   0  0  0  0  0  0  0  0  0  0  0  0
   31.2340    0.9083  -22.3274 O   0  0  0  0  0  0  0  0  0  0  0  0
   28.5852    0.8377  -26.3526 C   0  0  0  0  0  0  0  0  0  0  0  0
   27.8066   -0.4321  -26.0317 C   0  0  0  0  0  0  0  0  0  0  0  0
   27.9081   -1.0851  -24.7478 C   0  0  0  0  0  0  0  0  0  0  0  0
   27.1128   -2.2215  -24.4830 C   0  0  0  0  0  0  0  0  0  0  0  0
   26.2948   -2.7033  -25.4967 C   0  0  0  0  0  0  0  0  0  0  0  0
   25.4556   -3.8003  -25.4718 O   0  0  0  0  0  0  0  0  0  0  0  0
   24.8333   -3.9132  -26.7591 C   0  0  0  0  0  0  0  0  0  0  0  0
   25.3545   -2.8127  -27.5188 O   0  0  0  0  0  0  0  0  0  0  0  0
   26.2345   -2.1156  -26.7152 C   0  0  0  0  0  0  0  0  0  0  0  0
   26.9726   -0.9810  -27.0270 C   0  0  0  0  0  0  0  0  0  0  0  0
   29.4260   -3.3885  -21.1928 C   0  0  0  0  0  0  0  0  0  0  0  0
   28.8374   -2.3242  -21.8934 C   0  0  0  0  0  0  0  0  0  0  0  0
   29.5219   -1.6634  -22.9072 C   0  0  0  0  0  0  0  0  0  0  0  0
   30.8126   -2.0720  -23.2411 C   0  0  0  0  0  0  0  0  0  0  0  0
   31.4365   -3.1216  -22.5656 C   0  0  0  0  0  0  0  0  0  0  0  0
   30.7484   -3.8010  -21.5220 C   0  0  0  0  0  0  0  0  0  0  0  0
   27.6671   -3.4001  -19.4428 C   0  0  0  0  0  0  0  0  0  0  0  0
   28.6919   -4.0371  -20.1953 O   0  0  0  0  0  0  0  0  0  0  0  0
   32.7414   -3.4361  -22.9801 O   0  0  0  0  0  0  0  0  0  0  0  0
   33.5569   -4.4599  -22.4291 C   0  0  0  0  0  0  0  0  0  0  0  0
   31.4114   -4.8649  -20.8814 O   0  0  0  0  0  0  0  0  0  0  0  0
   31.0323   -5.5888  -19.3642 P   0  0  0  0  0  0  0  0  0  0  0  0
   30.5977   -4.3995  -18.2453 O   0  0  0  0  0  0  0  0  0  0  0  0
   32.3989   -6.4040  -18.7960 O   0  0  0  0  0  0  0  0  0  0  0  0
   29.9049   -6.5827  -19.5286 O   0  0  0  0  0  0  0  0  0  0  0  0
   31.3263   -3.7668  -18.1464 H   0  0  0  0  0  0  0  0  0  0  0  0
   33.1288   -5.7745  -18.6870 H   0  0  0  0  0  0  0  0  0  0  0  0
   27.7513    1.7672  -26.9871 O   0  0  0  0  0  0  0  0  0  0  0  0
   27.5162    1.2429  -28.2628 C   0  0  0  0  0  0  0  0  0  0  0  0
   28.6248    1.5148  -29.0903 O   0  0  0  0  0  0  0  0  0  0  0  0
   28.4287    0.7786  -30.2697 C   0  0  0  0  0  0  0  0  0  0  0  0
   29.6763    0.8190  -31.1450 C   0  0  0  0  0  0  0  0  0  0  0  0
   29.4103    0.2136  -32.3914 O   0  0  0  0  0  0  0  0  0  0  0  0
   28.3866    0.9675  -33.0011 C   0  0  0  0  0  0  0  0  0  0  0  0
   28.2388    0.5413  -34.4478 C   0  0  0  0  0  0  0  0  0  0  0  0
   27.1688    0.7607  -32.3220 O   0  0  0  0  0  0  0  0  0  0  0  0
   27.3004    1.4167  -31.0846 C   0  0  0  0  0  0  0  0  0  0  0  0
   26.0100    1.3331  -30.2765 C   0  0  0  0  0  0  0  0  0  0  0  0
   25.0118    2.0804  -30.9034 O   0  0  0  0  0  0  0  0  0  0  0  0
   26.2404    1.8657  -28.8576 C   0  0  0  0  0  0  0  0  0  0  0  0
   25.1401    1.5532  -28.0588 O   0  0  0  0  0  0  0  0  0  0  0  0
   25.2885    3.0086  -30.9572 H   0  0  0  0  0  0  0  0  0  0  0  0
   25.0289    0.5902  -28.0239 H   0  0  0  0  0  0  0  0  0  0  0  0
 24 25  1  0  0  0
 25 18  1  0  0  0
 18 19  2  0  0  0
 19 20  1  0  0  0
 20 21  2  0  0  0
 21 22  1  0  0  0
 22 26  1  0  0  0
 26 27  1  0  0  0
 22 23  2  0  0  0
 23 28  1  0  0  0
 28 29  1  0  0  0
 29 30  1  0  0  0
 29 31  1  0  0  0
 29 32  2  0  0  0
  1 20  1  0  0  0
  1  2  1  0  0  0
  2  3  1  0  0  0
  3  4  1  0  0  0
  4  5  1  0  0  0
  5  6  1  0  0  0
  6  7  2  0  0  0
  3  8  1  0  0  0
  8 35  1  0  0  0
 36 35  1  0  0  0
 36 37  1  0  0  0
 38 37  1  0  0  0
 38 39  1  0  0  0
 39 40  1  0  0  0
 40 41  1  0  0  0
 41 42  1  0  0  0
 41 43  1  0  0  0
 44 43  1  0  0  0
 44 45  1  0  0  0
 45 46  1  0  0  0
 45 47  1  0  0  0
 47 48  1  0  0  0
  8  9  1  0  0  0
  9 10  2  0  0  0
 10 11  1  0  0  0
 11 12  2  0  0  0
 12 13  1  0  0  0
 13 14  1  0  0  0
 14 15  1  0  0  0
 15 16  1  0  0  0
 16 17  2  0  0  0
 23 18  1  0  0  0
 10  1  1  0  0  0
 16 12  1  0  0  0
  2  6  1  0  0  0
 47 36  1  0  0  0
 17  9  1  0  0  0
 44 38  1  0  0  0
 30 33  1  0  0  0
 31 34  1  0  0  0
 46 49  1  0  0  0
 48 50  1  0  0  0
M  END
>  <minimizedAffinity>
134.53312

>  <minimizedRMSD>
3.36963

$$$$
MCULE-3405863462 MolPort-005-944-920 PubChem-45359707


 62 68  0  0  0  0  0  0  0  0999 V2000
   28.3083   -3.7790  -22.2827 C   0  0  0  0  0  0  0  0  0  0  0  0
   28.5650   -5.2841  -22.3454 C   0  0  0  0  0  0  0  0  0  0  0  0
   29.0684   -5.6630  -23.7462 C   0  0  0  0  0  0  0  0  0  0  0  0
   27.9939   -5.5485  -24.8173 C   0  0  0  0  0  0  0  0  0  0  0  0
   26.8257   -6.4664  -24.4731 C   0  0  0  0  0  0  0  0  0  0  0  0
   26.1697   -6.0427  -23.1449 C   0  0  0  0  0  0  0  0  0  0  0  0
   27.2367   -6.0276  -22.0092 C   0  0  0  0  0  0  0  0  0  0  0  0
   27.5324   -7.4083  -21.4294 C   0  0  0  0  0  0  0  0  0  0  0  0
   28.1435   -7.2411  -20.0414 C   0  0  0  0  0  0  0  0  0  0  0  0
   29.2591   -6.1695  -19.9513 C   0  0  0  0  0  0  0  0  0  0  0  0
   29.7026   -5.6784  -21.3559 C   0  0  0  0  0  0  0  0  0  0  0  0
   30.8764   -4.6820  -21.3296 C   0  0  0  0  0  0  0  0  0  0  0  0
   31.8415   -4.8958  -20.1964 C   0  0  0  0  0  0  0  0  0  0  0  0
   31.6747   -5.7950  -19.2135 C   0  0  0  0  0  0  0  0  0  0  0  0
   30.5000   -6.7689  -19.2082 C   0  0  0  0  0  0  0  0  0  0  0  0
   30.1116   -7.1257  -17.7612 C   0  0  0  0  0  0  0  0  0  0  0  0
   31.3131   -7.5100  -16.9010 C   0  0  0  0  0  0  0  0  0  0  0  0
   32.3223   -6.3644  -16.7859 C   0  0  0  0  0  0  0  0  0  0  0  0
   32.7885   -5.9191  -18.2034 C   0  0  0  0  0  0  0  0  0  0  0  0
   33.9259   -6.7927  -18.7368 C   0  0  0  0  0  0  0  0  0  0  0  0
   35.1724   -6.7077  -17.8451 C   0  0  0  0  0  0  0  0  0  0  0  0
   34.8468   -6.3288  -16.3937 C   0  0  0  0  0  0  0  0  0  0  0  0
   33.4998   -6.9031  -15.9523 C   0  0  0  0  0  0  0  0  0  0  0  0
   35.8727   -8.0512  -17.8642 C   0  0  0  0  0  0  0  0  0  0  0  0
   36.1130   -5.6657  -18.4144 C   0  0  0  0  0  0  0  0  0  0  0  0
   30.9621   -8.0504  -19.9079 C   0  0  0  0  0  0  0  0  0  0  0  0
   28.6831   -4.9833  -19.1726 C   0  0  0  0  0  0  0  0  0  0  0  0
   25.5544   -4.6510  -23.2883 C   0  0  0  0  0  0  0  0  0  0  0  0
   31.7051   -5.2127  -16.0259 C   0  0  0  0  0  0  0  0  0  0  0  0
   31.7063   -4.0439  -16.4988 O   0  0  0  0  0  0  0  0  0  0  0  0
   31.1281   -5.4374  -14.7808 O   0  0  0  0  0  0  0  0  0  0  0  0
   31.1201   -6.3009  -14.4171 H   0  0  0  0  0  0  0  0  0  0  0  0
   25.0287   -7.0171  -22.8201 C   0  0  0  0  0  0  0  0  0  0  0  0
   23.7810   -6.4394  -23.0723 O   0  0  0  0  0  0  0  0  0  0  0  0
   23.6696   -5.6539  -22.5142 H   0  0  0  0  0  0  0  0  0  0  0  0
   25.8931   -6.4613  -25.5297 O   0  0  0  0  0  0  0  0  0  0  0  0
   26.5751   -6.6990  -26.7439 C   0  0  0  0  0  0  0  0  0  0  0  0
   26.9698   -5.3941  -27.4748 C   0  0  0  0  0  0  0  0  0  0  0  0
   28.2820   -5.5249  -28.2668 C   0  0  0  0  0  0  0  0  0  0  0  0
   28.4641   -6.9511  -28.8201 C   0  0  0  0  0  0  0  0  0  0  0  0
   27.9996   -8.0515  -27.8472 C   0  0  0  0  0  0  0  0  0  0  0  0
   27.6892   -7.5438  -26.5713 O   0  0  0  0  0  0  0  0  0  0  0  0
   29.7861   -7.1733  -29.2083 O   0  0  0  0  0  0  0  0  0  0  0  0
   29.3498   -5.1892  -27.4309 O   0  0  0  0  0  0  0  0  0  0  0  0
   30.3649   -7.1169  -28.4320 H   0  0  0  0  0  0  0  0  0  0  0  0
   29.3727   -5.7972  -26.6754 H   0  0  0  0  0  0  0  0  0  0  0  0
   25.9138   -4.8113  -28.2117 O   0  0  0  0  0  0  0  0  0  0  0  0
   25.5171   -5.6963  -29.2296 C   0  0  0  0  0  0  0  0  0  0  0  0
   23.9904   -5.7172  -29.3382 C   0  0  0  0  0  0  0  0  0  0  0  0
   23.5753   -6.6752  -30.4559 C   0  0  0  0  0  0  0  0  0  0  0  0
   24.3958   -6.4415  -31.7265 C   0  0  0  0  0  0  0  0  0  0  0  0
   25.8819   -6.3338  -31.3623 C   0  0  0  0  0  0  0  0  0  0  0  0
   26.0697   -5.2780  -30.4527 O   0  0  0  0  0  0  0  0  0  0  0  0
   24.1940   -7.5070  -32.6061 O   0  0  0  0  0  0  0  0  0  0  0  0
   22.2177   -6.5122  -30.7359 O   0  0  0  0  0  0  0  0  0  0  0  0
   23.4350   -6.1427  -28.1306 O   0  0  0  0  0  0  0  0  0  0  0  0
   24.4740   -8.3335  -32.1824 H   0  0  0  0  0  0  0  0  0  0  0  0
   22.0567   -5.6049  -31.0387 H   0  0  0  0  0  0  0  0  0  0  0  0
   23.7518   -7.0364  -27.9261 H   0  0  0  0  0  0  0  0  0  0  0  0
   26.7148   -6.0764  -32.6058 C   0  0  0  0  0  0  0  0  0  0  0  0
   27.3597   -4.8443  -32.4952 O   0  0  0  0  0  0  0  0  0  0  0  0
   26.6986   -4.1405  -32.4025 H   0  0  0  0  0  0  0  0  0  0  0  0
  2  1  1  0  0  0
  2  3  1  0  0  0
  3  4  1  0  0  0
  4  5  1  0  0  0
  5  6  1  0  0  0
  5 36  1  0  0  0
  6  7  1  0  0  0
  6 28  1  0  0  0
  6 33  1  0  0  0
  7  8  1  0  0  0
  7  2  1  0  0  0
  8  9  1  0  0  0
  9 10  1  0  0  0
 10 11  1  0  0  0
 10 27  1  0  0  0
 11 12  1  0  0  0
 11  2  1  0  0  0
 12 13  1  0  0  0
 13 14  2  0  0  0
 14 15  1  0  0  0
 15 16  1  0  0  0
 15 26  1  0  0  0
 15 10  1  0  0  0
 16 17  1  0  0  0
 17 18  1  0  0  0
 18 19  1  0  0  0
 18 29  1  0  0  0
 19 20  1  0  0  0
 19 14  1  0  0  0
 20 21  1  0  0  0
 21 22  1  0  0  0
 21 24  1  0  0  0
 21 25  1  0  0  0
 22 23  1  0  0  0
 23 18  1  0  0  0
 29 30  2  0  0  0
 29 31  1  0  0  0
 33 34  1  0  0  0
 37 36  1  0  0  0
 37 38  1  0  0  0
 38 39  1  0  0  0
 38 47  1  0  0  0
 39 40  1  0  0  0
 39 44  1  0  0  0
 40 41  1  0  0  0
 40 43  1  0  0  0
 41 42  1  0  0  0
 42 37  1  0  0  0
 48 47  1  0  0  0
 48 49  1  0  0  0
 49 50  1  0  0  0
 49 56  1  0  0  0
 50 51  1  0  0  0
 50 55  1  0  0  0
 51 52  1  0  0  0
 51 54  1  0  0  0
 52 53  1  0  0  0
 52 60  1  0  0  0
 53 48  1  0  0  0
 60 61  1  0  0  0
 31 32  1  0  0  0
 34 35  1  0  0  0
 43 45  1  0  0  0
 44 46  1  0  0  0
 61 62  1  0  0  0
 54 57  1  0  0  0
 55 58  1  0  0  0
 56 59  1  0  0  0
M  END
>  <minimizedAffinity>
135.28732

>  <minimizedRMSD>
4.37174

$$$$
MCULE-1513819602 MolPort-046-627-164 PubChem-137918162


 79 85  0  0  0  0  0  0  0  0999 V2000
   33.0210   -2.1128  -17.0496 C   0  0  0  0  0  0  0  0  0  0  0  0
   32.6081   -3.5394  -16.6733 C   0  0  0  0  0  0  0  0  0  0  0  0
   33.6019   -4.5347  -17.2491 C   0  0  0  0  0  0  0  0  0  0  0  0
   33.5619   -4.4729  -18.7765 C   0  0  0  0  0  0  0  0  0  0  0  0
   33.7940   -3.0499  -19.2846 C   0  0  0  0  0  0  0  0  0  0  0  0
   34.3925   -2.8332  -20.4766 C   0  0  0  0  0  0  0  0  0  0  0  0
   35.0280   -3.9136  -21.3087 C   0  0  0  0  0  0  0  0  0  0  0  0
   34.4525   -5.3018  -20.9815 C   0  0  0  0  0  0  0  0  0  0  0  0
   33.1546   -5.6906  -21.7697 C   0  0  0  0  0  0  0  0  0  0  0  0
   32.2370   -4.4819  -21.9963 C   0  0  0  0  0  0  0  0  0  0  0  0
   33.5911   -6.1655  -23.1539 C   0  0  0  0  0  0  0  0  0  0  0  0
   32.8042   -7.4160  -23.5052 C   0  0  0  0  0  0  0  0  0  0  0  0
   31.8373   -7.6567  -22.3594 C   0  0  0  0  0  0  0  0  0  0  0  0
   32.3714   -6.8915  -21.1461 C   0  0  0  0  0  0  0  0  0  0  0  0
   31.1811   -6.4542  -20.2818 C   0  0  0  0  0  0  0  0  0  0  0  0
   33.3098   -7.7592  -20.2954 C   0  0  0  0  0  0  0  0  0  0  0  0
   33.8792   -6.9427  -19.1793 C   0  0  0  0  0  0  0  0  0  0  0  0
   33.8269   -7.3825  -18.0419 O   0  0  0  0  0  0  0  0  0  0  0  0
   34.4344   -5.5589  -19.4570 C   0  0  0  0  0  0  0  0  0  0  0  0
   35.8719   -5.5010  -18.9387 C   0  0  0  0  0  0  0  0  0  0  0  0
   33.0864   -1.8976  -18.5803 C   0  0  0  0  0  0  0  0  0  0  0  0
   33.7762   -0.5657  -18.8644 C   0  0  0  0  0  0  0  0  0  0  0  0
   31.6701   -1.7962  -19.1158 C   0  0  0  0  0  0  0  0  0  0  0  0
   31.3858   -9.1320  -22.1856 C   0  0  0  0  0  0  0  0  0  0  0  0
   32.5476  -10.0280  -21.7804 C   0  0  0  0  0  0  0  0  0  0  0  0
   30.3953   -9.2240  -21.2038 O   0  0  0  0  0  0  0  0  0  0  0  0
   30.7418   -8.8877  -20.3625 H   0  0  0  0  0  0  0  0  0  0  0  0
   30.8244   -9.6650  -23.5023 C   0  0  0  0  0  0  0  0  0  0  0  0
   29.3157   -9.4452  -23.6106 C   0  0  0  0  0  0  0  0  0  0  0  0
   28.7358   -9.9499  -24.9363 C   0  0  0  0  0  0  0  0  0  0  0  0
   29.4584  -11.0579  -25.3909 O   0  0  0  0  0  0  0  0  0  0  0  0
   30.3708  -10.7915  -25.5847 H   0  0  0  0  0  0  0  0  0  0  0  0
   28.6063   -8.8783  -26.0340 C   0  0  0  0  0  0  0  0  0  0  0  0
   29.8623   -8.0033  -26.0338 C   0  0  0  0  0  0  0  0  0  0  0  0
   27.4113   -8.0002  -25.6680 C   0  0  0  0  0  0  0  0  0  0  0  0
   28.4132   -9.5277  -27.2822 O   0  0  0  0  0  0  0  0  0  0  0  0
   29.2016   -8.9234  -28.2881 C   0  0  0  0  0  0  0  0  0  0  0  0
   30.5376   -9.3912  -28.2478 O   0  0  0  0  0  0  0  0  0  0  0  0
   30.5410  -10.7808  -28.4992 C   0  0  0  0  0  0  0  0  0  0  0  0
   30.1446  -11.0690  -29.9497 C   0  0  0  0  0  0  0  0  0  0  0  0
   31.0517  -10.4794  -30.8361 O   0  0  0  0  0  0  0  0  0  0  0  0
   28.7393  -10.5281  -30.2083 C   0  0  0  0  0  0  0  0  0  0  0  0
   27.7903  -11.3666  -29.6213 O   0  0  0  0  0  0  0  0  0  0  0  0
   28.5680   -9.1004  -29.6776 C   0  0  0  0  0  0  0  0  0  0  0  0
   29.1371   -8.1921  -30.5702 O   0  0  0  0  0  0  0  0  0  0  0  0
   31.0524   -9.5182  -30.7062 H   0  0  0  0  0  0  0  0  0  0  0  0
   27.9264  -11.3867  -28.6611 H   0  0  0  0  0  0  0  0  0  0  0  0
   30.0878   -8.3679  -30.6482 H   0  0  0  0  0  0  0  0  0  0  0  0
   31.9105  -11.3683  -28.1940 C   0  0  0  0  0  0  0  0  0  0  0  0
   32.6079  -10.5223  -27.3302 O   0  0  0  0  0  0  0  0  0  0  0  0
   32.7205   -9.6545  -27.7487 H   0  0  0  0  0  0  0  0  0  0  0  0
   34.2388   -1.7908  -16.4281 O   0  0  0  0  0  0  0  0  0  0  0  0
   34.9753   -2.4627  -14.2306 C   0  0  0  0  0  0  0  0  0  0  0  0
   34.5958   -2.3790  -12.7463 C   0  0  0  0  0  0  0  0  0  0  0  0
   33.5406   -3.2522  -12.4804 O   0  0  0  0  0  0  0  0  0  0  0  0
   34.2013   -0.9527  -12.3421 C   0  0  0  0  0  0  0  0  0  0  0  0
   35.3496   -0.1703  -12.1932 O   0  0  0  0  0  0  0  0  0  0  0  0
   33.2653   -0.3457  -13.4055 C   0  0  0  0  0  0  0  0  0  0  0  0
   33.8817   -0.3575  -14.6702 O   0  0  0  0  0  0  0  0  0  0  0  0
   33.9333   -1.7039  -15.0663 C   0  0  0  0  0  0  0  0  0  0  0  0
   32.7667   -2.9931  -13.0047 H   0  0  0  0  0  0  0  0  0  0  0  0
   35.8306   -0.1386  -13.0349 H   0  0  0  0  0  0  0  0  0  0  0  0
   32.8563    1.0709  -13.0449 C   0  0  0  0  0  0  0  0  0  0  0  0
   33.2218    1.3534  -11.7287 O   0  0  0  0  0  0  0  0  0  0  0  0
   32.7764    0.7342  -11.1294 H   0  0  0  0  0  0  0  0  0  0  0  0
   36.2466   -1.9105  -14.4241 O   0  0  0  0  0  0  0  0  0  0  0  0
   38.8542   -2.2491  -17.5125 C   0  0  0  0  0  0  0  0  0  0  0  0
   38.6536   -2.3797  -16.0117 C   0  0  0  0  0  0  0  0  0  0  0  0
   37.5989   -3.2675  -15.7277 O   0  0  0  0  0  0  0  0  0  0  0  0
   37.1319   -2.9981  -14.4145 C   0  0  0  0  0  0  0  0  0  0  0  0
   38.2585   -2.8276  -13.3556 C   0  0  0  0  0  0  0  0  0  0  0  0
   38.4085   -1.4820  -13.0017 O   0  0  0  0  0  0  0  0  0  0  0  0
   39.5843   -3.3800  -13.8901 C   0  0  0  0  0  0  0  0  0  0  0  0
   40.6240   -3.1346  -12.9898 O   0  0  0  0  0  0  0  0  0  0  0  0
   39.9317   -2.8132  -15.2712 C   0  0  0  0  0  0  0  0  0  0  0  0
   40.6240   -3.7890  -15.9908 O   0  0  0  0  0  0  0  0  0  0  0  0
   38.6616   -0.9681  -13.7845 H   0  0  0  0  0  0  0  0  0  0  0  0
   40.7428   -2.1775  -12.8863 H   0  0  0  0  0  0  0  0  0  0  0  0
   40.0658   -4.5764  -16.0875 H   0  0  0  0  0  0  0  0  0  0  0  0
 67 68  1  0  0  0
 68 69  1  0  0  0
 69 70  1  0  0  0
 70 66  1  0  0  0
 66 53  1  0  0  0
 53 54  1  0  0  0
 54 55  1  0  0  0
 54 56  1  0  0  0
 56 57  1  0  0  0
 56 58  1  0  0  0
 58 63  1  0  0  0
 63 64  1  0  0  0
 58 59  1  0  0  0
 59 60  1  0  0  0
 60 52  1  0  0  0
 52  1  1  0  0  0
  1  2  1  0  0  0
  2  3  1  0  0  0
  3  4  1  0  0  0
  4  5  1  0  0  0
  5  6  2  0  0  0
  6  7  1  0  0  0
  7  8  1  0  0  0
  8  9  1  0  0  0
  9 10  1  0  0  0
  9 11  1  0  0  0
 11 12  1  0  0  0
 12 13  1  0  0  0
 13 24  1  0  0  0
 24 25  1  0  0  0
 24 26  1  0  0  0
 24 28  1  0  0  0
 28 29  1  0  0  0
 29 30  1  0  0  0
 30 31  1  0  0  0
 30 33  1  0  0  0
 33 34  1  0  0  0
 33 35  1  0  0  0
 33 36  1  0  0  0
 36 37  1  0  0  0
 37 38  1  0  0  0
 38 39  1  0  0  0
 39 49  1  0  0  0
 49 50  1  0  0  0
 39 40  1  0  0  0
 40 41  1  0  0  0
 40 42  1  0  0  0
 42 43  1  0  0  0
 42 44  1  0  0  0
 44 45  1  0  0  0
 13 14  1  0  0  0
 14 15  1  0  0  0
 14 16  1  0  0  0
 16 17  1  0  0  0
 17 18  2  0  0  0
 17 19  1  0  0  0
 19 20  1  0  0  0
  5 21  1  0  0  0
 21 22  1  0  0  0
 21 23  1  0  0  0
 70 71  1  0  0  0
 71 72  1  0  0  0
 71 73  1  0  0  0
 73 74  1  0  0  0
 73 75  1  0  0  0
 75 76  1  0  0  0
 75 68  1  0  0  0
 60 53  1  0  0  0
 21  1  1  0  0  0
 19  4  1  0  0  0
 19  8  1  0  0  0
 14  9  1  0  0  0
 44 37  1  0  0  0
 55 61  1  0  0  0
 57 62  1  0  0  0
 64 65  1  0  0  0
 26 27  1  0  0  0
 31 32  1  0  0  0
 50 51  1  0  0  0
 41 46  1  0  0  0
 43 47  1  0  0  0
 45 48  1  0  0  0
 72 77  1  0  0  0
 74 78  1  0  0  0
 76 79  1  0  0  0
M  END
>  <minimizedAffinity>
135.74321

>  <minimizedRMSD>
6.79661

$$$$
MCULE-8858985465 MolPort-047-134-022 PubChem-131752575


 69 75  0  0  0  0  0  0  0  0999 V2000
   28.7748   -8.8021  -24.5572 C   0  0  0  0  0  0  0  0  0  0  0  0
   30.1549   -9.0502  -25.1459 C   0  0  0  0  0  0  0  0  0  0  0  0
   31.2870   -8.6676  -24.1872 C   0  0  0  0  0  0  0  0  0  0  0  0
   32.4638   -8.3989  -24.9481 O   0  0  0  0  0  0  0  0  0  0  0  0
   33.1719   -7.1983  -24.8208 C   0  0  0  0  0  0  0  0  0  0  0  0
   32.8453   -6.3696  -23.9267 O   0  0  0  0  0  0  0  0  0  0  0  0
   34.3332   -6.9033  -25.6952 C   0  0  0  0  0  0  0  0  0  0  0  0
   35.3765   -6.1373  -25.1591 C   0  0  0  0  0  0  0  0  0  0  0  0
   36.4995   -5.8185  -25.9206 C   0  0  0  0  0  0  0  0  0  0  0  0
   36.5947   -6.2571  -27.2434 C   0  0  0  0  0  0  0  0  0  0  0  0
   35.5583   -7.0086  -27.8089 C   0  0  0  0  0  0  0  0  0  0  0  0
   34.4194   -7.3369  -27.0459 C   0  0  0  0  0  0  0  0  0  0  0  0
   33.3115   -8.0888  -27.6850 C   0  0  0  0  0  0  0  0  0  0  0  0
   33.5012   -9.4611  -27.9531 C   0  0  0  0  0  0  0  0  0  0  0  0
   32.4280  -10.2630  -28.3556 C   0  0  0  0  0  0  0  0  0  0  0  0
   31.1451   -9.7214  -28.4459 C   0  0  0  0  0  0  0  0  0  0  0  0
   30.9517   -8.3489  -28.2228 C   0  0  0  0  0  0  0  0  0  0  0  0
   32.0314   -7.5045  -27.8955 C   0  0  0  0  0  0  0  0  0  0  0  0
   31.7509   -6.1204  -27.7545 C   0  0  0  0  0  0  0  0  0  0  0  0
   32.6729   -5.2802  -27.5820 O   0  0  0  0  0  0  0  0  0  0  0  0
   30.4976   -5.6776  -27.8140 O   0  0  0  0  0  0  0  0  0  0  0  0
   29.4539   -6.4753  -28.0124 C   0  0  0  0  0  0  0  0  0  0  0  0
   28.1584   -5.9580  -27.9650 C   0  0  0  0  0  0  0  0  0  0  0  0
   27.0575   -6.8161  -28.0542 C   0  0  0  0  0  0  0  0  0  0  0  0
   27.2420   -8.2019  -28.2382 C   0  0  0  0  0  0  0  0  0  0  0  0
   26.0715   -9.0914  -28.0568 C   0  0  0  0  0  0  0  0  0  0  0  0
   25.1435   -9.2125  -29.1105 C   0  0  0  0  0  0  0  0  0  0  0  0
   24.0317  -10.0513  -28.9805 C   0  0  0  0  0  0  0  0  0  0  0  0
   23.8367  -10.7753  -27.8028 C   0  0  0  0  0  0  0  0  0  0  0  0
   24.7467  -10.6585  -26.7539 C   0  0  0  0  0  0  0  0  0  0  0  0
   25.8679   -9.8215  -26.8501 C   0  0  0  0  0  0  0  0  0  0  0  0
   26.7829   -9.7587  -25.6739 C   0  0  0  0  0  0  0  0  0  0  0  0
   26.6268  -10.5751  -24.7235 O   0  0  0  0  0  0  0  0  0  0  0  0
   27.8087   -8.8115  -25.6021 O   0  0  0  0  0  0  0  0  0  0  0  0
   22.7375  -11.6139  -27.6679 O   0  0  0  0  0  0  0  0  0  0  0  0
   23.1216  -10.1669  -30.0254 O   0  0  0  0  0  0  0  0  0  0  0  0
   25.3295   -8.5044  -30.2945 O   0  0  0  0  0  0  0  0  0  0  0  0
   28.5548   -8.7179  -28.4184 C   0  0  0  0  0  0  0  0  0  0  0  0
   29.6486   -7.8458  -28.2466 C   0  0  0  0  0  0  0  0  0  0  0  0
   28.8466  -10.0773  -28.6995 C   0  0  0  0  0  0  0  0  0  0  0  0
   27.9306  -10.9029  -28.9548 O   0  0  0  0  0  0  0  0  0  0  0  0
   30.1056  -10.5088  -28.7034 O   0  0  0  0  0  0  0  0  0  0  0  0
   25.7751   -6.2912  -27.9203 O   0  0  0  0  0  0  0  0  0  0  0  0
   27.9616   -4.5936  -27.7811 O   0  0  0  0  0  0  0  0  0  0  0  0
   32.6311  -11.6139  -28.6164 O   0  0  0  0  0  0  0  0  0  0  0  0
   34.7543  -10.0432  -27.7825 O   0  0  0  0  0  0  0  0  0  0  0  0
   35.6559   -7.4147  -29.1368 O   0  0  0  0  0  0  0  0  0  0  0  0
   37.7167   -5.9396  -28.0011 O   0  0  0  0  0  0  0  0  0  0  0  0
   37.5197   -5.0630  -25.3562 O   0  0  0  0  0  0  0  0  0  0  0  0
   30.2704  -10.3801  -25.5591 O   0  0  0  0  0  0  0  0  0  0  0  0
   22.1223  -11.6965  -28.3697 H   0  0  0  0  0  0  0  0  0  0  0  0
   23.2518   -9.6813  -30.8161 H   0  0  0  0  0  0  0  0  0  0  0  0
   26.0711   -7.9400  -30.3913 H   0  0  0  0  0  0  0  0  0  0  0  0
   25.6563   -5.3698  -27.7982 H   0  0  0  0  0  0  0  0  0  0  0  0
   28.6985   -4.0179  -27.7212 H   0  0  0  0  0  0  0  0  0  0  0  0
   33.4921  -11.9785  -28.5560 H   0  0  0  0  0  0  0  0  0  0  0  0
   35.4821   -9.5180  -27.5132 H   0  0  0  0  0  0  0  0  0  0  0  0
   36.4151   -7.1939  -29.6396 H   0  0  0  0  0  0  0  0  0  0  0  0
   38.4106   -5.4364  -27.6225 H   0  0  0  0  0  0  0  0  0  0  0  0
   37.4506   -4.7715  -24.4684 H   0  0  0  0  0  0  0  0  0  0  0  0
   30.1789  -10.9663  -24.7917 H   0  0  0  0  0  0  0  0  0  0  0  0
   31.5698   -9.7560  -23.1411 C   0  0  0  0  0  0  0  0  0  0  0  0
   30.4528   -9.9534  -22.3234 O   0  0  0  0  0  0  0  0  0  0  0  0
   30.2549   -9.1342  -21.8431 H   0  0  0  0  0  0  0  0  0  0  0  0
   32.7915   -9.4063  -22.2891 C   0  0  0  0  0  0  0  0  0  0  0  0
   32.5030   -8.3437  -21.4301 O   0  0  0  0  0  0  0  0  0  0  0  0
   31.7891   -8.6009  -20.8259 H   0  0  0  0  0  0  0  0  0  0  0  0
   33.2452  -10.5862  -21.4926 C   0  0  0  0  0  0  0  0  0  0  0  0
   33.8281  -11.5113  -22.0348 O   0  0  0  0  0  0  0  0  0  0  0  0
  1  2  1  0  0  0
  2  3  1  0  0  0
  3  4  1  0  0  0
  4  5  1  0  0  0
  5  6  2  0  0  0
  5  7  1  0  0  0
  7  8  2  0  0  0
  8  9  1  0  0  0
  9 10  2  0  0  0
 10 11  1  0  0  0
 11 12  2  0  0  0
 12 13  1  0  0  0
 13 14  2  0  0  0
 14 15  1  0  0  0
 15 16  2  0  0  0
 16 17  1  0  0  0
 17 18  2  0  0  0
 18 19  1  0  0  0
 19 20  2  0  0  0
 19 21  1  0  0  0
 21 22  1  0  0  0
 22 23  2  0  0  0
 23 24  1  0  0  0
 24 25  2  0  0  0
 25 26  1  0  0  0
 26 27  2  0  0  0
 27 28  1  0  0  0
 28 29  2  0  0  0
 29 30  1  0  0  0
 30 31  2  0  0  0
 31 32  1  0  0  0
 32 33  2  0  0  0
 32 34  1  0  0  0
 29 35  1  0  0  0
 28 36  1  0  0  0
 27 37  1  0  0  0
 25 38  1  0  0  0
 38 39  2  0  0  0
 38 40  1  0  0  0
 40 41  2  0  0  0
 40 42  1  0  0  0
 24 43  1  0  0  0
 23 44  1  0  0  0
 15 45  1  0  0  0
 14 46  1  0  0  0
 11 47  1  0  0  0
 10 48  1  0  0  0
  9 49  1  0  0  0
  3 62  1  0  0  0
 62 65  1  0  0  0
 65 68  1  0  0  0
 68 69  2  0  0  0
 65 66  1  0  0  0
 62 63  1  0  0  0
  2 50  1  0  0  0
 34  1  1  0  0  0
 12  7  1  0  0  0
 18 13  1  0  0  0
 42 16  1  0  0  0
 39 17  1  0  0  0
 39 22  1  0  0  0
 31 26  1  0  0  0
 35 51  1  0  0  0
 36 52  1  0  0  0
 37 53  1  0  0  0
 43 54  1  0  0  0
 44 55  1  0  0  0
 45 56  1  0  0  0
 46 57  1  0  0  0
 47 58  1  0  0  0
 48 59  1  0  0  0
 49 60  1  0  0  0
 66 67  1  0  0  0
 63 64  1  0  0  0
 50 61  1  0  0  0
M  END
>  <minimizedAffinity>
136.83642

>  <minimizedRMSD>
8.24630

$$$$
MCULE-8858985465 MolPort-047-134-022 PubChem-131752575


 69 75  0  0  0  0  0  0  0  0999 V2000
   28.7167   -8.6828  -24.6148 C   0  0  0  0  0  0  0  0  0  0  0  0
   30.0725   -8.9054  -25.2669 C   0  0  0  0  0  0  0  0  0  0  0  0
   31.2416   -8.5797  -24.3320 C   0  0  0  0  0  0  0  0  0  0  0  0
   32.3912   -8.2760  -25.1208 O   0  0  0  0  0  0  0  0  0  0  0  0
   33.1114   -7.0871  -24.9563 C   0  0  0  0  0  0  0  0  0  0  0  0
   32.8234   -6.3059  -24.0078 O   0  0  0  0  0  0  0  0  0  0  0  0
   34.2415   -6.7511  -25.8564 C   0  0  0  0  0  0  0  0  0  0  0  0
   35.3089   -6.0196  -25.3196 C   0  0  0  0  0  0  0  0  0  0  0  0
   36.4050   -5.6657  -26.1043 C   0  0  0  0  0  0  0  0  0  0  0  0
   36.4484   -6.0334  -27.4512 C   0  0  0  0  0  0  0  0  0  0  0  0
   35.3870   -6.7490  -28.0169 C   0  0  0  0  0  0  0  0  0  0  0  0
   34.2749   -7.1124  -27.2306 C   0  0  0  0  0  0  0  0  0  0  0  0
   33.1393   -7.8241  -27.8670 C   0  0  0  0  0  0  0  0  0  0  0  0
   33.3100   -9.1810  -28.2146 C   0  0  0  0  0  0  0  0  0  0  0  0
   32.2175   -9.9554  -28.6189 C   0  0  0  0  0  0  0  0  0  0  0  0
   30.9357   -9.4039  -28.6325 C   0  0  0  0  0  0  0  0  0  0  0  0
   30.7595   -8.0444  -28.3297 C   0  0  0  0  0  0  0  0  0  0  0  0
   31.8561   -7.2236  -27.9984 C   0  0  0  0  0  0  0  0  0  0  0  0
   31.5900   -5.8477  -27.7736 C   0  0  0  0  0  0  0  0  0  0  0  0
   32.5232   -5.0221  -27.5911 O   0  0  0  0  0  0  0  0  0  0  0  0
   30.3383   -5.3967  -27.7628 O   0  0  0  0  0  0  0  0  0  0  0  0
   29.2828   -6.1780  -27.9643 C   0  0  0  0  0  0  0  0  0  0  0  0
   27.9933   -5.6581  -27.8412 C   0  0  0  0  0  0  0  0  0  0  0  0
   26.8843   -6.5052  -27.9349 C   0  0  0  0  0  0  0  0  0  0  0  0
   27.0529   -7.8801  -28.1991 C   0  0  0  0  0  0  0  0  0  0  0  0
   25.8841   -8.7727  -28.0217 C   0  0  0  0  0  0  0  0  0  0  0  0
   24.9171   -8.8331  -29.0451 C   0  0  0  0  0  0  0  0  0  0  0  0
   23.8054   -9.6727  -28.9186 C   0  0  0  0  0  0  0  0  0  0  0  0
   23.6494  -10.4576  -27.7746 C   0  0  0  0  0  0  0  0  0  0  0  0
   24.5982  -10.4011  -26.7556 C   0  0  0  0  0  0  0  0  0  0  0  0
   25.7205   -9.5652  -26.8489 C   0  0  0  0  0  0  0  0  0  0  0  0
   26.6787   -9.5695  -25.7059 C   0  0  0  0  0  0  0  0  0  0  0  0
   26.5526  -10.4347  -24.7950 O   0  0  0  0  0  0  0  0  0  0  0  0
   27.7126   -8.6321  -25.6221 O   0  0  0  0  0  0  0  0  0  0  0  0
   22.5505  -11.2973  -27.6436 O   0  0  0  0  0  0  0  0  0  0  0  0
   22.8565   -9.7282  -29.9336 O   0  0  0  0  0  0  0  0  0  0  0  0
   25.0638   -8.0637  -30.1959 O   0  0  0  0  0  0  0  0  0  0  0  0
   28.3548   -8.3916  -28.4552 C   0  0  0  0  0  0  0  0  0  0  0  0
   29.4598   -7.5349  -28.2781 C   0  0  0  0  0  0  0  0  0  0  0  0
   28.6271   -9.7354  -28.8188 C   0  0  0  0  0  0  0  0  0  0  0  0
   27.6970  -10.5420  -29.0834 O   0  0  0  0  0  0  0  0  0  0  0  0
   29.8823  -10.1718  -28.8926 O   0  0  0  0  0  0  0  0  0  0  0  0
   25.6111   -5.9824  -27.7256 O   0  0  0  0  0  0  0  0  0  0  0  0
   27.8124   -4.3046  -27.5779 O   0  0  0  0  0  0  0  0  0  0  0  0
   32.4020  -11.2914  -28.9586 O   0  0  0  0  0  0  0  0  0  0  0  0
   34.5648   -9.7770  -28.1220 O   0  0  0  0  0  0  0  0  0  0  0  0
   35.4328   -7.0841  -29.3672 O   0  0  0  0  0  0  0  0  0  0  0  0
   37.5437   -5.6810  -28.2322 O   0  0  0  0  0  0  0  0  0  0  0  0
   37.4503   -4.9460  -25.5389 O   0  0  0  0  0  0  0  0  0  0  0  0
   30.1640  -10.2119  -25.7542 O   0  0  0  0  0  0  0  0  0  0  0  0
   21.9092  -11.3395  -28.3255 H   0  0  0  0  0  0  0  0  0  0  0  0
   22.9607   -9.2016  -30.7016 H   0  0  0  0  0  0  0  0  0  0  0  0
   25.8050   -7.4982  -30.2901 H   0  0  0  0  0  0  0  0  0  0  0  0
   25.5030   -5.0683  -27.5503 H   0  0  0  0  0  0  0  0  0  0  0  0
   28.5546   -3.7362  -27.5149 H   0  0  0  0  0  0  0  0  0  0  0  0
   33.2623  -11.6625  -28.9498 H   0  0  0  0  0  0  0  0  0  0  0  0
   35.3054   -9.2702  -27.8524 H   0  0  0  0  0  0  0  0  0  0  0  0
   36.1744   -6.8402  -29.8855 H   0  0  0  0  0  0  0  0  0  0  0  0
   38.2544   -5.2019  -27.8535 H   0  0  0  0  0  0  0  0  0  0  0  0
   37.4159   -4.7020  -24.6349 H   0  0  0  0  0  0  0  0  0  0  0  0
   30.0971  -10.8377  -25.0162 H   0  0  0  0  0  0  0  0  0  0  0  0
   31.5559   -9.7236  -23.3565 C   0  0  0  0  0  0  0  0  0  0  0  0
   30.3917  -10.1528  -22.7117 O   0  0  0  0  0  0  0  0  0  0  0  0
   30.0219   -9.4221  -22.1919 H   0  0  0  0  0  0  0  0  0  0  0  0
   32.6056   -9.3045  -22.3254 C   0  0  0  0  0  0  0  0  0  0  0  0
   32.0897   -8.3307  -21.4676 O   0  0  0  0  0  0  0  0  0  0  0  0
   31.3327   -8.6951  -20.9827 H   0  0  0  0  0  0  0  0  0  0  0  0
   33.0727  -10.4786  -21.5281 C   0  0  0  0  0  0  0  0  0  0  0  0
   33.8355  -11.2953  -22.0186 O   0  0  0  0  0  0  0  0  0  0  0  0
  1  2  1  0  0  0
  2  3  1  0  0  0
  3  4  1  0  0  0
  4  5  1  0  0  0
  5  6  2  0  0  0
  5  7  1  0  0  0
  7  8  2  0  0  0
  8  9  1  0  0  0
  9 10  2  0  0  0
 10 11  1  0  0  0
 11 12  2  0  0  0
 12 13  1  0  0  0
 13 14  2  0  0  0
 14 15  1  0  0  0
 15 16  2  0  0  0
 16 17  1  0  0  0
 17 18  2  0  0  0
 18 19  1  0  0  0
 19 20  2  0  0  0
 19 21  1  0  0  0
 21 22  1  0  0  0
 22 23  2  0  0  0
 23 24  1  0  0  0
 24 25  2  0  0  0
 25 26  1  0  0  0
 26 27  2  0  0  0
 27 28  1  0  0  0
 28 29  2  0  0  0
 29 30  1  0  0  0
 30 31  2  0  0  0
 31 32  1  0  0  0
 32 33  2  0  0  0
 32 34  1  0  0  0
 29 35  1  0  0  0
 28 36  1  0  0  0
 27 37  1  0  0  0
 25 38  1  0  0  0
 38 39  2  0  0  0
 38 40  1  0  0  0
 40 41  2  0  0  0
 40 42  1  0  0  0
 24 43  1  0  0  0
 23 44  1  0  0  0
 15 45  1  0  0  0
 14 46  1  0  0  0
 11 47  1  0  0  0
 10 48  1  0  0  0
  9 49  1  0  0  0
  3 62  1  0  0  0
 62 65  1  0  0  0
 65 68  1  0  0  0
 68 69  2  0  0  0
 65 66  1  0  0  0
 62 63  1  0  0  0
  2 50  1  0  0  0
 34  1  1  0  0  0
 12  7  1  0  0  0
 18 13  1  0  0  0
 42 16  1  0  0  0
 39 17  1  0  0  0
 39 22  1  0  0  0
 31 26  1  0  0  0
 35 51  1  0  0  0
 36 52  1  0  0  0
 37 53  1  0  0  0
 43 54  1  0  0  0
 44 55  1  0  0  0
 45 56  1  0  0  0
 46 57  1  0  0  0
 47 58  1  0  0  0
 48 59  1  0  0  0
 49 60  1  0  0  0
 66 67  1  0  0  0
 63 64  1  0  0  0
 50 61  1  0  0  0
M  END
>  <minimizedAffinity>
138.61576

>  <minimizedRMSD>
10.40956

$$$$
MCULE-3732229572 MolPort-046-836-816 PubChem-77916109


105114  0  0  0  0  0  0  0  0999 V2000
   33.4140   -6.1014  -19.8519 C   0  0  0  0  0  0  0  0  0  0  0  0
   33.5385   -6.4160  -18.3435 C   0  0  0  0  0  0  0  0  0  0  0  0
   33.7409   -7.9020  -18.0520 C   0  0  0  0  0  0  0  0  0  0  0  0
   35.0292   -8.4253  -18.6910 C   0  0  0  0  0  0  0  0  0  0  0  0
   35.2911   -7.8288  -20.0825 C   0  0  0  0  0  0  0  0  0  0  0  0
   34.0302   -7.2319  -20.7477 C   0  0  0  0  0  0  0  0  0  0  0  0
   33.0821   -8.3156  -21.2621 C   0  0  0  0  0  0  0  0  0  0  0  0
   33.6266   -9.3982  -21.8551 C   0  0  0  0  0  0  0  0  0  0  0  0
   32.8441  -10.5774  -22.3709 C   0  0  0  0  0  0  0  0  0  0  0  0
   31.3564  -10.5974  -21.9654 C   0  0  0  0  0  0  0  0  0  0  0  0
   30.9597   -9.6113  -20.8326 C   0  0  0  0  0  0  0  0  0  0  0  0
   31.5617   -8.2063  -21.1610 C   0  0  0  0  0  0  0  0  0  0  0  0
   31.1368   -7.1784  -20.0980 C   0  0  0  0  0  0  0  0  0  0  0  0
   31.9247   -5.8712  -20.1619 C   0  0  0  0  0  0  0  0  0  0  0  0
   31.7373   -5.2283  -21.3901 O   0  0  0  0  0  0  0  0  0  0  0  0
   31.0317   -7.7266  -22.5164 C   0  0  0  0  0  0  0  0  0  0  0  0
   29.4220   -9.5226  -20.6937 C   0  0  0  0  0  0  0  0  0  0  0  0
   28.6514  -10.5900  -21.4687 C   0  0  0  0  0  0  0  0  0  0  0  0
   29.2874  -11.9771  -21.2958 C   0  0  0  0  0  0  0  0  0  0  0  0
   30.7449  -12.0193  -21.8596 C   0  0  0  0  0  0  0  0  0  0  0  0
   30.8083  -12.7037  -23.2410 C   0  0  0  0  0  0  0  0  0  0  0  0
   29.5558  -12.5009  -24.1022 C   0  0  0  0  0  0  0  0  0  0  0  0
   28.2561  -12.9388  -23.4012 C   0  0  0  0  0  0  0  0  0  0  0  0
   28.3695  -13.0960  -21.8587 C   0  0  0  0  0  0  0  0  0  0  0  0
   29.4561  -11.1686  -24.5096 O   0  0  0  0  0  0  0  0  0  0  0  0
   31.5878  -12.8570  -20.9064 C   0  0  0  0  0  0  0  0  0  0  0  0
   31.4942  -10.1215  -19.4934 C   0  0  0  0  0  0  0  0  0  0  0  0
   36.2010   -8.0812  -17.7956 C   0  0  0  0  0  0  0  0  0  0  0  0
   34.9401   -9.9342  -18.8009 C   0  0  0  0  0  0  0  0  0  0  0  0
   32.0719   -5.7925  -22.1047 H   0  0  0  0  0  0  0  0  0  0  0  0
   29.3510  -10.5995  -23.7311 H   0  0  0  0  0  0  0  0  0  0  0  0
   26.9674  -12.9622  -21.2471 C   0  0  0  0  0  0  0  0  0  0  0  0
   27.0307  -12.9209  -19.8525 O   0  0  0  0  0  0  0  0  0  0  0  0
   27.4263  -13.7427  -19.5223 H   0  0  0  0  0  0  0  0  0  0  0  0
   28.9615  -14.4678  -21.4741 C   0  0  0  0  0  0  0  0  0  0  0  0
   27.9849  -15.4650  -21.4376 O   0  0  0  0  0  0  0  0  0  0  0  0
   27.3186  -15.2408  -20.7693 H   0  0  0  0  0  0  0  0  0  0  0  0
   34.1818   -4.8143  -20.0784 C   0  0  0  0  0  0  0  0  0  0  0  0
   34.1521   -4.2504  -21.2048 O   0  0  0  0  0  0  0  0  0  0  0  0
   34.8672   -4.2138  -19.0230 O   0  0  0  0  0  0  0  0  0  0  0  0
   35.8602   -2.0738  -19.5464 C   0  0  0  0  0  0  0  0  0  0  0  0
   37.1723   -1.2628  -19.5620 C   0  0  0  0  0  0  0  0  0  0  0  0
   38.0836   -1.6498  -18.4023 C   0  0  0  0  0  0  0  0  0  0  0  0
   38.1438   -3.1698  -18.3004 C   0  0  0  0  0  0  0  0  0  0  0  0
   36.8634   -3.6679  -18.0185 O   0  0  0  0  0  0  0  0  0  0  0  0
   36.1127   -3.5579  -19.2025 C   0  0  0  0  0  0  0  0  0  0  0  0
   39.3669   -1.1549  -18.6281 O   0  0  0  0  0  0  0  0  0  0  0  0
   36.9020    0.1047  -19.5206 O   0  0  0  0  0  0  0  0  0  0  0  0
   39.7170   -1.5280  -19.4521 H   0  0  0  0  0  0  0  0  0  0  0  0
   36.4399    0.3181  -18.6949 H   0  0  0  0  0  0  0  0  0  0  0  0
   35.1018   -1.9238  -20.7342 O   0  0  0  0  0  0  0  0  0  0  0  0
   32.2224   -0.5637  -18.0804 C   0  0  0  0  0  0  0  0  0  0  0  0
   33.0952    0.3588  -18.9206 C   0  0  0  0  0  0  0  0  0  0  0  0
   32.2798    0.9536  -20.0941 C   0  0  0  0  0  0  0  0  0  0  0  0
   33.1904    1.2726  -21.2868 C   0  0  0  0  0  0  0  0  0  0  0  0
   34.0678    0.0712  -21.6628 C   0  0  0  0  0  0  0  0  0  0  0  0
   34.1118   -0.9481  -20.5173 C   0  0  0  0  0  0  0  0  0  0  0  0
   34.3088   -0.2837  -19.2894 O   0  0  0  0  0  0  0  0  0  0  0  0
   35.3576    0.5224  -21.9559 O   0  0  0  0  0  0  0  0  0  0  0  0
   32.4132    1.6332  -22.3886 O   0  0  0  0  0  0  0  0  0  0  0  0
   35.7318    0.9607  -21.1757 H   0  0  0  0  0  0  0  0  0  0  0  0
   31.8388    0.8917  -22.6357 H   0  0  0  0  0  0  0  0  0  0  0  0
   31.5903    2.0969  -19.6779 O   0  0  0  0  0  0  0  0  0  0  0  0
   30.2429    1.8088  -19.9204 C   0  0  0  0  0  0  0  0  0  0  0  0
   29.3393    2.6578  -19.0219 C   0  0  0  0  0  0  0  0  0  0  0  0
   28.0080    3.0030  -19.7117 C   0  0  0  0  0  0  0  0  0  0  0  0
   27.5668    1.9458  -20.7274 C   0  0  0  0  0  0  0  0  0  0  0  0
   28.7426    1.3329  -21.5047 C   0  0  0  0  0  0  0  0  0  0  0  0
   29.9428    2.0255  -21.2737 O   0  0  0  0  0  0  0  0  0  0  0  0
   26.8632    0.9343  -20.0788 O   0  0  0  0  0  0  0  0  0  0  0  0
   28.1290    4.2342  -20.3518 O   0  0  0  0  0  0  0  0  0  0  0  0
   29.0834    1.9557  -17.8409 O   0  0  0  0  0  0  0  0  0  0  0  0
   27.4446    0.4956  -19.4381 H   0  0  0  0  0  0  0  0  0  0  0  0
   28.8135    4.1766  -21.0366 H   0  0  0  0  0  0  0  0  0  0  0  0
   28.6251    1.1269  -18.0504 H   0  0  0  0  0  0  0  0  0  0  0  0
   27.7271  -14.0936  -24.0111 O   0  0  0  0  0  0  0  0  0  0  0  0
   28.5727  -14.4912  -25.0674 C   0  0  0  0  0  0  0  0  0  0  0  0
   28.6586  -16.0244  -25.2518 C   0  0  0  0  0  0  0  0  0  0  0  0
   28.5652  -16.4338  -26.7256 C   0  0  0  0  0  0  0  0  0  0  0  0
   29.3179  -15.4746  -27.6599 C   0  0  0  0  0  0  0  0  0  0  0  0
   29.3775  -14.0484  -27.1021 C   0  0  0  0  0  0  0  0  0  0  0  0
   28.2830  -13.7988  -26.2608 O   0  0  0  0  0  0  0  0  0  0  0  0
   30.6166  -15.9398  -27.8659 O   0  0  0  0  0  0  0  0  0  0  0  0
   27.2250  -16.4896  -27.1051 O   0  0  0  0  0  0  0  0  0  0  0  0
   29.8506  -16.4896  -24.7060 O   0  0  0  0  0  0  0  0  0  0  0  0
   31.0902  -15.9616  -27.0196 H   0  0  0  0  0  0  0  0  0  0  0  0
   26.8263  -15.6099  -27.0142 H   0  0  0  0  0  0  0  0  0  0  0  0
   30.5991  -16.0857  -25.1724 H   0  0  0  0  0  0  0  0  0  0  0  0
   29.4419  -13.0336  -28.2365 C   0  0  0  0  0  0  0  0  0  0  0  0
   30.5803  -12.2237  -28.1168 O   0  0  0  0  0  0  0  0  0  0  0  0
   30.1706  -10.9288  -28.4755 C   0  0  0  0  0  0  0  0  0  0  0  0
   30.1106   -9.9865  -27.2583 C   0  0  0  0  0  0  0  0  0  0  0  0
   29.0341   -8.8965  -27.4414 C   0  0  0  0  0  0  0  0  0  0  0  0
   28.8524   -8.5123  -28.9171 C   0  0  0  0  0  0  0  0  0  0  0  0
   28.8599   -9.7394  -29.8499 C   0  0  0  0  0  0  0  0  0  0  0  0
   28.9354  -10.9567  -29.1408 O   0  0  0  0  0  0  0  0  0  0  0  0
   29.8683   -7.6392  -29.3006 O   0  0  0  0  0  0  0  0  0  0  0  0
   27.8046   -9.3226  -26.9284 O   0  0  0  0  0  0  0  0  0  0  0  0
   29.9031  -10.6948  -26.0693 O   0  0  0  0  0  0  0  0  0  0  0  0
   30.7264   -8.0827  -29.2121 H   0  0  0  0  0  0  0  0  0  0  0  0
   27.5022  -10.1026  -27.4194 H   0  0  0  0  0  0  0  0  0  0  0  0
   29.0447  -11.1450  -26.1067 H   0  0  0  0  0  0  0  0  0  0  0  0
   27.6148   -9.7245  -30.7174 C   0  0  0  0  0  0  0  0  0  0  0  0
   27.1708  -11.0306  -30.9273 O   0  0  0  0  0  0  0  0  0  0  0  0
   27.8650  -11.5403  -31.3735 H   0  0  0  0  0  0  0  0  0  0  0  0
 52 53  1  0  0  0
 53 54  1  0  0  0
 54 55  1  0  0  0
 55 56  1  0  0  0
 56 57  1  0  0  0
 57 58  1  0  0  0
 57 51  1  0  0  0
 51 41  1  0  0  0
 41 42  1  0  0  0
 42 43  1  0  0  0
 43 44  1  0  0  0
 44 45  1  0  0  0
 45 46  1  0  0  0
 46 40  1  0  0  0
 40 38  1  0  0  0
 38 39  2  0  0  0
 38  1  1  0  0  0
  1  2  1  0  0  0
  2  3  1  0  0  0
  3  4  1  0  0  0
  4  5  1  0  0  0
  5  6  1  0  0  0
  6  7  1  0  0  0
  7  8  2  0  0  0
  8  9  1  0  0  0
  9 10  1  0  0  0
 10 11  1  0  0  0
 11 12  1  0  0  0
 12 13  1  0  0  0
 13 14  1  0  0  0
 14 15  1  0  0  0
 12 16  1  0  0  0
 11 17  1  0  0  0
 17 18  1  0  0  0
 18 19  1  0  0  0
 19 20  1  0  0  0
 20 21  1  0  0  0
 21 22  1  0  0  0
 22 23  1  0  0  0
 23 24  1  0  0  0
 24 32  1  0  0  0
 32 33  1  0  0  0
 24 35  1  0  0  0
 35 36  1  0  0  0
 23 76  1  0  0  0
 76 77  1  0  0  0
 77 78  1  0  0  0
 78 79  1  0  0  0
 79 80  1  0  0  0
 80 81  1  0  0  0
 81 82  1  0  0  0
 81 89  1  0  0  0
 89 90  1  0  0  0
 90 91  1  0  0  0
 91 92  1  0  0  0
 92 93  1  0  0  0
 93 94  1  0  0  0
 94 95  1  0  0  0
 95 96  1  0  0  0
 95103  1  0  0  0
103104  1  0  0  0
 94 97  1  0  0  0
 93 98  1  0  0  0
 92 99  1  0  0  0
 80 83  1  0  0  0
 79 84  1  0  0  0
 78 85  1  0  0  0
 22 25  1  0  0  0
 20 26  1  0  0  0
 11 27  1  0  0  0
  4 28  1  0  0  0
  4 29  1  0  0  0
 43 47  1  0  0  0
 42 48  1  0  0  0
 56 59  1  0  0  0
 55 60  1  0  0  0
 54 63  1  0  0  0
 63 64  1  0  0  0
 64 65  1  0  0  0
 65 66  1  0  0  0
 66 67  1  0  0  0
 67 68  1  0  0  0
 68 69  1  0  0  0
 67 70  1  0  0  0
 66 71  1  0  0  0
 65 72  1  0  0  0
 58 53  1  0  0  0
 69 64  1  0  0  0
 46 41  1  0  0  0
  6  1  1  0  0  0
 14  1  1  0  0  0
 12  7  1  0  0  0
 20 10  1  0  0  0
 24 19  1  0  0  0
 82 77  1  0  0  0
 96 91  1  0  0  0
 15 30  1  0  0  0
 33 34  1  0  0  0
 36 37  1  0  0  0
104105  1  0  0  0
 97100  1  0  0  0
 98101  1  0  0  0
 99102  1  0  0  0
 83 86  1  0  0  0
 84 87  1  0  0  0
 85 88  1  0  0  0
 25 31  1  0  0  0
 47 49  1  0  0  0
 48 50  1  0  0  0
 59 61  1  0  0  0
 60 62  1  0  0  0
 70 73  1  0  0  0
 71 74  1  0  0  0
 72 75  1  0  0  0
M  END
>  <minimizedAffinity>
140.20094

>  <minimizedRMSD>
12.86685

$$$$
MCULE-6330142641 MCULE-8273713251 CHEMBL3792981 LN01345245 MolPort-020-005-636 PubChem-21637642 ZINC000085643336


 64 70  0  0  0  0  0  0  0  0999 V2000
   26.1407   -4.3656  -23.9792 C   0  0  0  0  0  0  0  0  0  0  0  0
   27.1269   -3.2192  -23.7667 C   0  0  0  0  0  0  0  0  0  0  0  0
   28.4029   -3.7531  -23.1274 C   0  0  0  0  0  0  0  0  0  0  0  0
   28.1276   -4.3754  -21.7535 C   0  0  0  0  0  0  0  0  0  0  0  0
   27.6868   -3.2739  -20.7881 C   0  0  0  0  0  0  0  0  0  0  0  0
   27.0455   -5.4777  -21.9082 C   0  0  0  0  0  0  0  0  0  0  0  0
   26.8245   -6.2544  -20.6073 C   0  0  0  0  0  0  0  0  0  0  0  0
   28.1188   -6.9637  -20.2124 C   0  0  0  0  0  0  0  0  0  0  0  0
   29.2723   -5.9709  -19.9809 C   0  0  0  0  0  0  0  0  0  0  0  0
   28.9458   -5.1442  -18.7310 C   0  0  0  0  0  0  0  0  0  0  0  0
   29.4170   -5.0479  -21.2315 C   0  0  0  0  0  0  0  0  0  0  0  0
   30.6691   -4.1972  -21.2454 C   0  0  0  0  0  0  0  0  0  0  0  0
   31.7366   -4.5040  -20.5034 C   0  0  0  0  0  0  0  0  0  0  0  0
   31.7342   -5.6754  -19.5942 C   0  0  0  0  0  0  0  0  0  0  0  0
   32.6520   -5.7505  -18.6098 C   0  0  0  0  0  0  0  0  0  0  0  0
   33.9905   -5.0837  -18.7713 C   0  0  0  0  0  0  0  0  0  0  0  0
   35.0790   -6.1528  -18.9631 C   0  0  0  0  0  0  0  0  0  0  0  0
   34.9664   -6.7784  -20.3452 C   0  0  0  0  0  0  0  0  0  0  0  0
   36.4313   -5.4795  -18.8585 C   0  0  0  0  0  0  0  0  0  0  0  0
   34.9965   -7.2481  -17.8826 C   0  0  0  0  0  0  0  0  0  0  0  0
   33.5776   -7.8305  -17.7131 C   0  0  0  0  0  0  0  0  0  0  0  0
   32.5413   -6.7244  -17.4585 C   0  0  0  0  0  0  0  0  0  0  0  0
   31.1122   -7.2835  -17.3280 C   0  0  0  0  0  0  0  0  0  0  0  0
   31.0579   -8.3189  -16.3922 O   0  0  0  0  0  0  0  0  0  0  0  0
   30.5623   -7.7689  -18.6554 C   0  0  0  0  0  0  0  0  0  0  0  0
   30.6285   -6.7166  -19.7769 C   0  0  0  0  0  0  0  0  0  0  0  0
   30.9751   -7.5196  -21.0315 C   0  0  0  0  0  0  0  0  0  0  0  0
   25.7485   -5.0540  -22.6534 C   0  0  0  0  0  0  0  0  0  0  0  0
   24.8970   -4.1095  -21.8017 C   0  0  0  0  0  0  0  0  0  0  0  0
   31.6111   -9.0565  -16.6936 H   0  0  0  0  0  0  0  0  0  0  0  0
   32.8825   -6.0155  -16.1370 C   0  0  0  0  0  0  0  0  0  0  0  0
   32.1994   -4.7993  -16.0247 O   0  0  0  0  0  0  0  0  0  0  0  0
   32.4588   -4.2143  -16.7536 H   0  0  0  0  0  0  0  0  0  0  0  0
   24.9243   -6.2958  -23.0218 C   0  0  0  0  0  0  0  0  0  0  0  0
   23.5889   -5.9820  -23.2854 O   0  0  0  0  0  0  0  0  0  0  0  0
   23.1848   -5.5964  -22.4924 H   0  0  0  0  0  0  0  0  0  0  0  0
   25.0061   -3.9057  -24.6789 O   0  0  0  0  0  0  0  0  0  0  0  0
   23.1023   -7.2349  -27.3805 C   0  0  0  0  0  0  0  0  0  0  0  0
   24.0809   -6.0792  -27.3098 C   0  0  0  0  0  0  0  0  0  0  0  0
   24.3121   -5.7329  -25.9667 O   0  0  0  0  0  0  0  0  0  0  0  0
   24.9879   -4.4909  -25.9672 C   0  0  0  0  0  0  0  0  0  0  0  0
   26.3990   -4.6075  -26.5769 C   0  0  0  0  0  0  0  0  0  0  0  0
   26.9902   -3.3447  -26.6455 O   0  0  0  0  0  0  0  0  0  0  0  0
   26.3083   -5.2075  -27.9816 C   0  0  0  0  0  0  0  0  0  0  0  0
   25.4007   -6.4434  -27.9991 C   0  0  0  0  0  0  0  0  0  0  0  0
   26.0192   -7.5078  -27.3348 O   0  0  0  0  0  0  0  0  0  0  0  0
   26.4510   -2.7653  -27.2063 H   0  0  0  0  0  0  0  0  0  0  0  0
   26.1987   -7.2548  -26.4157 H   0  0  0  0  0  0  0  0  0  0  0  0
   27.5868   -5.5269  -28.4506 O   0  0  0  0  0  0  0  0  0  0  0  0
   27.3873   -6.0624  -29.7274 C   0  0  0  0  0  0  0  0  0  0  0  0
   27.2205   -7.4747  -29.6625 O   0  0  0  0  0  0  0  0  0  0  0  0
   28.4612   -8.1651  -29.6481 C   0  0  0  0  0  0  0  0  0  0  0  0
   29.3140   -7.9124  -30.8975 C   0  0  0  0  0  0  0  0  0  0  0  0
   29.2678   -9.0334  -31.7251 O   0  0  0  0  0  0  0  0  0  0  0  0
   28.8488   -6.6850  -31.6720 C   0  0  0  0  0  0  0  0  0  0  0  0
   29.8690   -6.2508  -32.5203 O   0  0  0  0  0  0  0  0  0  0  0  0
   28.4736   -5.5787  -30.6992 C   0  0  0  0  0  0  0  0  0  0  0  0
   28.0086   -4.4633  -31.3964 O   0  0  0  0  0  0  0  0  0  0  0  0
   28.3533   -9.1879  -32.0094 H   0  0  0  0  0  0  0  0  0  0  0  0
   30.6502   -6.0190  -31.9942 H   0  0  0  0  0  0  0  0  0  0  0  0
   27.2169   -4.7050  -31.9020 H   0  0  0  0  0  0  0  0  0  0  0  0
   29.2568   -7.9433  -28.3662 C   0  0  0  0  0  0  0  0  0  0  0  0
   28.5413   -8.4349  -27.2746 O   0  0  0  0  0  0  0  0  0  0  0  0
   27.6931   -7.9691  -27.2077 H   0  0  0  0  0  0  0  0  0  0  0  0
 39 38  1  0  0  0
 39 40  1  0  0  0
 40 41  1  0  0  0
 41 37  1  0  0  0
  1 37  1  0  0  0
  1  2  1  0  0  0
  2  3  1  0  0  0
  3  4  1  0  0  0
  4  5  1  0  0  0
  4  6  1  0  0  0
  6  7  1  0  0  0
  7  8  1  0  0  0
  8  9  1  0  0  0
  9 10  1  0  0  0
  9 11  1  0  0  0
 11 12  1  0  0  0
 12 13  2  0  0  0
 13 14  1  0  0  0
 14 15  2  0  0  0
 15 16  1  0  0  0
 16 17  1  0  0  0
 17 18  1  0  0  0
 17 19  1  0  0  0
 17 20  1  0  0  0
 20 21  1  0  0  0
 21 22  1  0  0  0
 22 31  1  0  0  0
 31 32  1  0  0  0
 22 23  1  0  0  0
 23 24  1  0  0  0
 23 25  1  0  0  0
 25 26  1  0  0  0
 26 27  1  0  0  0
  6 28  1  0  0  0
 28 29  1  0  0  0
 28 34  1  0  0  0
 34 35  1  0  0  0
 41 42  1  0  0  0
 42 43  1  0  0  0
 42 44  1  0  0  0
 44 49  1  0  0  0
 50 49  1  0  0  0
 50 51  1  0  0  0
 51 52  1  0  0  0
 52 62  1  0  0  0
 62 63  1  0  0  0
 52 53  1  0  0  0
 53 54  1  0  0  0
 53 55  1  0  0  0
 55 56  1  0  0  0
 55 57  1  0  0  0
 57 58  1  0  0  0
 44 45  1  0  0  0
 45 46  1  0  0  0
 45 39  1  0  0  0
 28  1  1  0  0  0
 57 50  1  0  0  0
 11  4  1  0  0  0
 26 14  1  0  0  0
 26  9  1  0  0  0
 22 15  1  0  0  0
 32 33  1  0  0  0
 24 30  1  0  0  0
 35 36  1  0  0  0
 43 47  1  0  0  0
 63 64  1  0  0  0
 54 59  1  0  0  0
 56 60  1  0  0  0
 58 61  1  0  0  0
 46 48  1  0  0  0
M  END
>  <minimizedAffinity>
143.85493

>  <minimizedRMSD>
3.51150

$$$$
MCULE-8858985465 MolPort-047-134-022 PubChem-131752575


 69 75  0  0  0  0  0  0  0  0999 V2000
   30.9802  -10.0926  -24.0387 C   0  0  0  0  0  0  0  0  0  0  0  0
   30.9754   -9.1476  -22.8475 C   0  0  0  0  0  0  0  0  0  0  0  0
   31.6375   -9.7497  -21.5998 C   0  0  0  0  0  0  0  0  0  0  0  0
   31.0788   -9.1575  -20.4304 O   0  0  0  0  0  0  0  0  0  0  0  0
   30.5874   -9.9266  -19.3699 C   0  0  0  0  0  0  0  0  0  0  0  0
   30.7538  -11.1778  -19.3745 O   0  0  0  0  0  0  0  0  0  0  0  0
   29.9117   -9.2859  -18.2139 C   0  0  0  0  0  0  0  0  0  0  0  0
   30.0076   -9.9193  -16.9678 C   0  0  0  0  0  0  0  0  0  0  0  0
   29.4025   -9.3762  -15.8356 C   0  0  0  0  0  0  0  0  0  0  0  0
   28.6805   -8.1843  -15.9327 C   0  0  0  0  0  0  0  0  0  0  0  0
   28.5547   -7.5398  -17.1685 C   0  0  0  0  0  0  0  0  0  0  0  0
   29.1627   -8.0822  -18.3186 C   0  0  0  0  0  0  0  0  0  0  0  0
   28.9673   -7.4085  -19.6255 C   0  0  0  0  0  0  0  0  0  0  0  0
   29.6678   -6.2088  -19.8711 C   0  0  0  0  0  0  0  0  0  0  0  0
   29.6908   -5.6472  -21.1521 C   0  0  0  0  0  0  0  0  0  0  0  0
   29.0586   -6.2974  -22.2127 C   0  0  0  0  0  0  0  0  0  0  0  0
   28.3219   -7.4681  -21.9720 C   0  0  0  0  0  0  0  0  0  0  0  0
   28.2199   -8.0112  -20.6755 C   0  0  0  0  0  0  0  0  0  0  0  0
   27.4034   -9.1612  -20.5177 C   0  0  0  0  0  0  0  0  0  0  0  0
   27.1653   -9.6436  -19.3791 O   0  0  0  0  0  0  0  0  0  0  0  0
   26.8588   -9.7514  -21.5785 O   0  0  0  0  0  0  0  0  0  0  0  0
   27.0309   -9.3145  -22.8214 C   0  0  0  0  0  0  0  0  0  0  0  0
   26.5104  -10.0376  -23.8958 C   0  0  0  0  0  0  0  0  0  0  0  0
   26.7937   -9.6447  -25.2078 C   0  0  0  0  0  0  0  0  0  0  0  0
   27.5672   -8.4929  -25.4598 C   0  0  0  0  0  0  0  0  0  0  0  0
   28.0664   -8.2767  -26.8376 C   0  0  0  0  0  0  0  0  0  0  0  0
   27.1929   -7.7235  -27.7950 C   0  0  0  0  0  0  0  0  0  0  0  0
   27.6305   -7.4979  -29.1043 C   0  0  0  0  0  0  0  0  0  0  0  0
   28.9388   -7.8206  -29.4689 C   0  0  0  0  0  0  0  0  0  0  0  0
   29.8085   -8.3722  -28.5301 C   0  0  0  0  0  0  0  0  0  0  0  0
   29.3992   -8.6159  -27.2110 C   0  0  0  0  0  0  0  0  0  0  0  0
   30.3996   -9.2123  -26.2788 C   0  0  0  0  0  0  0  0  0  0  0  0
   31.6003   -9.3303  -26.6509 O   0  0  0  0  0  0  0  0  0  0  0  0
   30.0331   -9.6422  -25.0002 O   0  0  0  0  0  0  0  0  0  0  0  0
   29.3821   -7.5956  -30.7662 O   0  0  0  0  0  0  0  0  0  0  0  0
   26.7630   -6.9497  -30.0428 O   0  0  0  0  0  0  0  0  0  0  0  0
   25.8879   -7.3889  -27.4443 O   0  0  0  0  0  0  0  0  0  0  0  0
   27.9894   -7.6787  -24.3730 C   0  0  0  0  0  0  0  0  0  0  0  0
   27.7575   -8.1374  -23.0605 C   0  0  0  0  0  0  0  0  0  0  0  0
   28.6936   -6.4561  -24.5183 C   0  0  0  0  0  0  0  0  0  0  0  0
   28.8671   -5.9327  -25.6505 O   0  0  0  0  0  0  0  0  0  0  0  0
   29.1843   -5.8305  -23.4510 O   0  0  0  0  0  0  0  0  0  0  0  0
   26.3359  -10.4268  -26.2646 O   0  0  0  0  0  0  0  0  0  0  0  0
   25.7489  -11.1778  -23.6619 O   0  0  0  0  0  0  0  0  0  0  0  0
   30.3872   -4.4648  -21.3788 O   0  0  0  0  0  0  0  0  0  0  0  0
   30.3780   -5.5886  -18.8468 O   0  0  0  0  0  0  0  0  0  0  0  0
   27.8103   -6.3666  -17.2539 O   0  0  0  0  0  0  0  0  0  0  0  0
   28.0798   -7.6424  -14.8017 O   0  0  0  0  0  0  0  0  0  0  0  0
   29.5225  -10.0268  -14.6141 O   0  0  0  0  0  0  0  0  0  0  0  0
   31.5399   -7.9189  -23.1964 O   0  0  0  0  0  0  0  0  0  0  0  0
   28.8020   -7.2249  -31.4019 H   0  0  0  0  0  0  0  0  0  0  0  0
   25.8848   -6.7330  -29.7987 H   0  0  0  0  0  0  0  0  0  0  0  0
   25.5853   -7.5362  -26.5698 H   0  0  0  0  0  0  0  0  0  0  0  0
   25.8222  -11.1915  -26.0933 H   0  0  0  0  0  0  0  0  0  0  0  0
   25.5585  -11.4419  -22.7833 H   0  0  0  0  0  0  0  0  0  0  0  0
   30.8120   -4.0275  -20.6672 H   0  0  0  0  0  0  0  0  0  0  0  0
   30.3712   -5.9540  -17.9841 H   0  0  0  0  0  0  0  0  0  0  0  0
   27.4081   -6.0100  -16.4864 H   0  0  0  0  0  0  0  0  0  0  0  0
   28.1639   -8.0739  -13.9742 H   0  0  0  0  0  0  0  0  0  0  0  0
   30.0080  -10.8260  -14.5547 H   0  0  0  0  0  0  0  0  0  0  0  0
   32.4689   -8.0484  -23.4436 H   0  0  0  0  0  0  0  0  0  0  0  0
   33.1715   -9.6645  -21.5422 C   0  0  0  0  0  0  0  0  0  0  0  0
   33.6912   -8.8505  -22.5541 O   0  0  0  0  0  0  0  0  0  0  0  0
   33.5049   -9.2500  -23.4181 H   0  0  0  0  0  0  0  0  0  0  0  0
   33.8641  -11.0248  -21.4938 C   0  0  0  0  0  0  0  0  0  0  0  0
   34.7420  -11.1774  -22.5723 O   0  0  0  0  0  0  0  0  0  0  0  0
   35.4282  -10.4931  -22.5301 H   0  0  0  0  0  0  0  0  0  0  0  0
   34.5885  -11.1778  -20.1908 C   0  0  0  0  0  0  0  0  0  0  0  0
   35.8085  -11.1777  -20.1367 O   0  0  0  0  0  0  0  0  0  0  0  0
  1  2  1  0  0  0
  2  3  1  0  0  0
  3  4  1  0  0  0
  4  5  1  0  0  0
  5  6  2  0  0  0
  5  7  1  0  0  0
  7  8  2  0  0  0
  8  9  1  0  0  0
  9 10  2  0  0  0
 10 11  1  0  0  0
 11 12  2  0  0  0
 12 13  1  0  0  0
 13 14  2  0  0  0
 14 15  1  0  0  0
 15 16  2  0  0  0
 16 17  1  0  0  0
 17 18  2  0  0  0
 18 19  1  0  0  0
 19 20  2  0  0  0
 19 21  1  0  0  0
 21 22  1  0  0  0
 22 23  2  0  0  0
 23 24  1  0  0  0
 24 25  2  0  0  0
 25 26  1  0  0  0
 26 27  2  0  0  0
 27 28  1  0  0  0
 28 29  2  0  0  0
 29 30  1  0  0  0
 30 31  2  0  0  0
 31 32  1  0  0  0
 32 33  2  0  0  0
 32 34  1  0  0  0
 29 35  1  0  0  0
 28 36  1  0  0  0
 27 37  1  0  0  0
 25 38  1  0  0  0
 38 39  2  0  0  0
 38 40  1  0  0  0
 40 41  2  0  0  0
 40 42  1  0  0  0
 24 43  1  0  0  0
 23 44  1  0  0  0
 15 45  1  0  0  0
 14 46  1  0  0  0
 11 47  1  0  0  0
 10 48  1  0  0  0
  9 49  1  0  0  0
  3 62  1  0  0  0
 62 65  1  0  0  0
 65 68  1  0  0  0
 68 69  2  0  0  0
 65 66  1  0  0  0
 62 63  1  0  0  0
  2 50  1  0  0  0
 34  1  1  0  0  0
 12  7  1  0  0  0
 18 13  1  0  0  0
 42 16  1  0  0  0
 39 17  1  0  0  0
 39 22  1  0  0  0
 31 26  1  0  0  0
 35 51  1  0  0  0
 36 52  1  0  0  0
 37 53  1  0  0  0
 43 54  1  0  0  0
 44 55  1  0  0  0
 45 56  1  0  0  0
 46 57  1  0  0  0
 47 58  1  0  0  0
 48 59  1  0  0  0
 49 60  1  0  0  0
 66 67  1  0  0  0
 63 64  1  0  0  0
 50 61  1  0  0  0
M  END
>  <minimizedAffinity>
145.53735

>  <minimizedRMSD>
5.83291

$$$$
MCULE-7926641801 PubChem-45357574


 87 94  0  0  0  0  0  0  0  0999 V2000
   27.2975    1.1047  -26.0013 C   0  0  0  0  0  0  0  0  0  0  0  0
   26.5535    0.1416  -25.0627 C   0  0  0  0  0  0  0  0  0  0  0  0
   27.4264   -0.2527  -23.8669 C   0  0  0  0  0  0  0  0  0  0  0  0
   28.7728   -0.7684  -24.2835 C   0  0  0  0  0  0  0  0  0  0  0  0
   29.3764   -0.3840  -25.5016 C   0  0  0  0  0  0  0  0  0  0  0  0
   28.6674    0.5918  -26.3759 C   0  0  0  0  0  0  0  0  0  0  0  0
   29.2234    1.0487  -27.4103 O   0  0  0  0  0  0  0  0  0  0  0  0
   30.6303   -0.9421  -25.8585 C   0  0  0  0  0  0  0  0  0  0  0  0
   31.2799   -1.8504  -24.9860 C   0  0  0  0  0  0  0  0  0  0  0  0
   30.6649   -2.1683  -23.7557 C   0  0  0  0  0  0  0  0  0  0  0  0
   29.4243   -1.6417  -23.4240 C   0  0  0  0  0  0  0  0  0  0  0  0
   31.3036   -2.9979  -22.8394 C   0  0  0  0  0  0  0  0  0  0  0  0
   32.5479   -3.5544  -23.1128 C   0  0  0  0  0  0  0  0  0  0  0  0
   33.1492   -3.3149  -24.3715 C   0  0  0  0  0  0  0  0  0  0  0  0
   32.5242   -2.4528  -25.2934 C   0  0  0  0  0  0  0  0  0  0  0  0
   33.1498   -2.2094  -26.5133 O   0  0  0  0  0  0  0  0  0  0  0  0
   34.4048   -4.0079  -24.7832 C   0  0  0  0  0  0  0  0  0  0  0  0
   31.2223   -0.5948  -27.0703 O   0  0  0  0  0  0  0  0  0  0  0  0
   33.9730   -2.6131  -26.7064 H   0  0  0  0  0  0  0  0  0  0  0  0
   30.7922    0.0059  -27.6467 H   0  0  0  0  0  0  0  0  0  0  0  0
   26.5334    1.3802  -27.1460 O   0  0  0  0  0  0  0  0  0  0  0  0
   26.1450    4.7712  -27.5834 C   0  0  0  0  0  0  0  0  0  0  0  0
   26.4514    3.7108  -26.5242 C   0  0  0  0  0  0  0  0  0  0  0  0
   25.6626    2.4196  -26.7810 C   0  0  0  0  0  0  0  0  0  0  0  0
   24.6417    2.6037  -27.7474 O   0  0  0  0  0  0  0  0  0  0  0  0
   25.2266    2.8880  -29.0060 C   0  0  0  0  0  0  0  0  0  0  0  0
   26.1045    4.1473  -28.9838 C   0  0  0  0  0  0  0  0  0  0  0  0
   27.3868    3.8147  -29.4134 O   0  0  0  0  0  0  0  0  0  0  0  0
   24.1363    3.0673  -30.0352 C   0  0  0  0  0  0  0  0  0  0  0  0
   27.7670    3.1532  -28.8145 H   0  0  0  0  0  0  0  0  0  0  0  0
   27.0967    5.8056  -27.5133 O   0  0  0  0  0  0  0  0  0  0  0  0
   22.9983    7.0929  -26.2763 C   0  0  0  0  0  0  0  0  0  0  0  0
   24.4610    7.4724  -26.3984 C   0  0  0  0  0  0  0  0  0  0  0  0
   24.6623    8.9955  -26.3362 C   0  0  0  0  0  0  0  0  0  0  0  0
   26.1228    9.3649  -26.6246 C   0  0  0  0  0  0  0  0  0  0  0  0
   27.0491    8.1464  -26.6385 C   0  0  0  0  0  0  0  0  0  0  0  0
   26.4311    7.0502  -27.5355 C   0  0  0  0  0  0  0  0  0  0  0  0
   25.0129    6.9485  -27.5850 O   0  0  0  0  0  0  0  0  0  0  0  0
   23.8487    9.6370  -27.2745 O   0  0  0  0  0  0  0  0  0  0  0  0
   24.0913    9.3440  -28.1668 H   0  0  0  0  0  0  0  0  0  0  0  0
   27.2351    7.6808  -25.3308 O   0  0  0  0  0  0  0  0  0  0  0  0
   28.0103    8.6593  -24.7033 C   0  0  0  0  0  0  0  0  0  0  0  0
   27.5231    8.8586  -23.2524 C   0  0  0  0  0  0  0  0  0  0  0  0
   28.6795    8.8698  -22.2422 C   0  0  0  0  0  0  0  0  0  0  0  0
   29.8983    9.6370  -22.7874 C   0  0  0  0  0  0  0  0  0  0  0  0
   30.0915    9.4033  -24.3080 C   0  0  0  0  0  0  0  0  0  0  0  0
   29.3651    8.2831  -24.7459 O   0  0  0  0  0  0  0  0  0  0  0  0
   31.5505    9.2860  -24.7300 C   0  0  0  0  0  0  0  0  0  0  0  0
   31.0487    9.3273  -22.0453 O   0  0  0  0  0  0  0  0  0  0  0  0
   28.2083    9.5421  -20.9708 C   0  0  0  0  0  0  0  0  0  0  0  0
   29.0361    7.5518  -21.9544 O   0  0  0  0  0  0  0  0  0  0  0  0
   31.2438    8.3810  -22.1312 H   0  0  0  0  0  0  0  0  0  0  0  0
   29.3394    7.1144  -22.7654 H   0  0  0  0  0  0  0  0  0  0  0  0
   33.1286   -4.3240  -22.0909 O   0  0  0  0  0  0  0  0  0  0  0  0
   34.3906   -4.0661  -21.4906 C   0  0  0  0  0  0  0  0  0  0  0  0
   34.9371   -5.3687  -20.8987 C   0  0  0  0  0  0  0  0  0  0  0  0
   36.2516   -5.1057  -20.1483 C   0  0  0  0  0  0  0  0  0  0  0  0
   36.2832   -3.7710  -19.3794 C   0  0  0  0  0  0  0  0  0  0  0  0
   35.5392   -2.6753  -20.1494 C   0  0  0  0  0  0  0  0  0  0  0  0
   34.2471   -3.1148  -20.4678 O   0  0  0  0  0  0  0  0  0  0  0  0
   35.4376   -1.4237  -19.3013 C   0  0  0  0  0  0  0  0  0  0  0  0
   37.5990   -3.3786  -19.1162 O   0  0  0  0  0  0  0  0  0  0  0  0
   38.0684   -3.2388  -19.9535 H   0  0  0  0  0  0  0  0  0  0  0  0
   37.4246   -5.4012  -20.8818 O   0  0  0  0  0  0  0  0  0  0  0  0
   37.1347   -6.3492  -21.8790 C   0  0  0  0  0  0  0  0  0  0  0  0
   37.0185   -5.6185  -23.2218 C   0  0  0  0  0  0  0  0  0  0  0  0
   36.7863   -6.6269  -24.3515 C   0  0  0  0  0  0  0  0  0  0  0  0
   37.7820   -7.7853  -24.2445 C   0  0  0  0  0  0  0  0  0  0  0  0
   37.7837   -8.3240  -22.8064 C   0  0  0  0  0  0  0  0  0  0  0  0
   38.1761   -7.2935  -21.9250 O   0  0  0  0  0  0  0  0  0  0  0  0
   38.7535   -9.4861  -22.6764 C   0  0  0  0  0  0  0  0  0  0  0  0
   37.4524   -8.7959  -25.1587 O   0  0  0  0  0  0  0  0  0  0  0  0
   35.4716   -7.1074  -24.2945 O   0  0  0  0  0  0  0  0  0  0  0  0
   36.5633   -9.1310  -24.9635 H   0  0  0  0  0  0  0  0  0  0  0  0
   35.3265   -7.5524  -23.4449 H   0  0  0  0  0  0  0  0  0  0  0  0
   25.8955   -1.0478  -25.7864 C   0  0  0  0  0  0  0  0  0  0  0  0
   25.2051   -1.9673  -24.8066 C   0  0  0  0  0  0  0  0  0  0  0  0
   24.1949   -1.5658  -24.2359 O   0  0  0  0  0  0  0  0  0  0  0  0
   25.7203   -3.3722  -24.5673 C   0  0  0  0  0  0  0  0  0  0  0  0
   26.1066   -3.5464  -23.2343 O   0  0  0  0  0  0  0  0  0  0  0  0
   25.3318   -3.4525  -22.6583 H   0  0  0  0  0  0  0  0  0  0  0  0
   24.7428   -4.4710  -24.9994 C   0  0  0  0  0  0  0  0  0  0  0  0
   24.8619   -5.7151  -24.1313 C   0  0  0  0  0  0  0  0  0  0  0  0
   24.9792   -4.8043  -26.3357 O   0  0  0  0  0  0  0  0  0  0  0  0
   25.8816   -5.1477  -26.4285 H   0  0  0  0  0  0  0  0  0  0  0  0
   26.8154   -1.7340  -26.5934 O   0  0  0  0  0  0  0  0  0  0  0  0
   26.1119   -2.0204  -27.7665 C   0  0  0  0  0  0  0  0  0  0  0  0
 33 32  1  0  0  0
 33 34  1  0  0  0
 34 35  1  0  0  0
 34 39  1  0  0  0
 35 36  1  0  0  0
 36 37  1  0  0  0
 36 41  1  0  0  0
 37 38  1  0  0  0
 37 31  1  0  0  0
 38 33  1  0  0  0
 22 31  1  0  0  0
 22 23  1  0  0  0
 23 24  1  0  0  0
 24 25  1  0  0  0
 24 21  1  0  0  0
 25 26  1  0  0  0
 26 27  1  0  0  0
 26 29  1  0  0  0
 27 28  1  0  0  0
 27 22  1  0  0  0
  1 21  1  0  0  0
  1  2  1  0  0  0
  2  3  1  0  0  0
  2 76  1  0  0  0
  3  4  1  0  0  0
  4  5  2  0  0  0
  5  6  1  0  0  0
  5  8  1  0  0  0
  6  7  2  0  0  0
  6  1  1  0  0  0
  8  9  2  0  0  0
  8 18  1  0  0  0
  9 10  1  0  0  0
 10 11  2  0  0  0
 10 12  1  0  0  0
 11  4  1  0  0  0
 12 13  2  0  0  0
 13 14  1  0  0  0
 13 54  1  0  0  0
 14 15  2  0  0  0
 14 17  1  0  0  0
 15 16  1  0  0  0
 15  9  1  0  0  0
 55 54  1  0  0  0
 55 56  1  0  0  0
 56 57  1  0  0  0
 57 58  1  0  0  0
 57 64  1  0  0  0
 58 59  1  0  0  0
 58 62  1  0  0  0
 59 60  1  0  0  0
 59 61  1  0  0  0
 60 55  1  0  0  0
 65 64  1  0  0  0
 65 66  1  0  0  0
 66 67  1  0  0  0
 67 68  1  0  0  0
 67 73  1  0  0  0
 68 69  1  0  0  0
 68 72  1  0  0  0
 69 70  1  0  0  0
 69 71  1  0  0  0
 70 65  1  0  0  0
 76 77  1  0  0  0
 76 86  1  0  0  0
 77 78  2  0  0  0
 79 77  1  0  0  0
 79 82  1  0  0  0
 79 80  1  0  0  0
 82 83  1  0  0  0
 82 84  1  0  0  0
 86 87  1  0  0  0
 42 41  1  0  0  0
 42 43  1  0  0  0
 43 44  1  0  0  0
 44 45  1  0  0  0
 44 50  1  0  0  0
 44 51  1  0  0  0
 45 46  1  0  0  0
 45 49  1  0  0  0
 46 47  1  0  0  0
 46 48  1  0  0  0
 47 42  1  0  0  0
 28 30  1  0  0  0
 16 19  1  0  0  0
 62 63  1  0  0  0
 72 74  1  0  0  0
 73 75  1  0  0  0
 18 20  1  0  0  0
 84 85  1  0  0  0
 80 81  1  0  0  0
 49 52  1  0  0  0
 51 53  1  0  0  0
 39 40  1  0  0  0
M  END
>  <minimizedAffinity>
154.60023

>  <minimizedRMSD>
5.54550

$$$$
MCULE-8858985465 MolPort-047-134-022 PubChem-131752575


 69 75  0  0  0  0  0  0  0  0999 V2000
   31.2441   -8.8270  -23.7093 C   0  0  0  0  0  0  0  0  0  0  0  0
   30.2325   -8.2638  -22.7209 C   0  0  0  0  0  0  0  0  0  0  0  0
   30.7977   -7.2575  -21.7144 C   0  0  0  0  0  0  0  0  0  0  0  0
   29.7137   -6.4895  -21.1997 O   0  0  0  0  0  0  0  0  0  0  0  0
   29.3046   -6.5342  -19.8654 C   0  0  0  0  0  0  0  0  0  0  0  0
   29.9721   -7.2080  -19.0324 O   0  0  0  0  0  0  0  0  0  0  0  0
   28.0976   -5.7877  -19.4122 C   0  0  0  0  0  0  0  0  0  0  0  0
   27.8782   -5.6833  -18.0313 C   0  0  0  0  0  0  0  0  0  0  0  0
   26.7790   -4.9937  -17.5232 C   0  0  0  0  0  0  0  0  0  0  0  0
   25.8696   -4.3896  -18.3938 C   0  0  0  0  0  0  0  0  0  0  0  0
   26.0571   -4.4818  -19.7769 C   0  0  0  0  0  0  0  0  0  0  0  0
   27.1625   -5.1814  -20.3005 C   0  0  0  0  0  0  0  0  0  0  0  0
   27.3150   -5.2741  -21.7727 C   0  0  0  0  0  0  0  0  0  0  0  0
   27.8741   -4.1730  -22.4536 C   0  0  0  0  0  0  0  0  0  0  0  0
   28.2682   -4.2887  -23.7909 C   0  0  0  0  0  0  0  0  0  0  0  0
   28.1510   -5.5127  -24.4523 C   0  0  0  0  0  0  0  0  0  0  0  0
   27.5448   -6.5993  -23.8028 C   0  0  0  0  0  0  0  0  0  0  0  0
   27.0757   -6.4866  -22.4775 C   0  0  0  0  0  0  0  0  0  0  0  0
   26.4443   -7.6248  -21.9140 C   0  0  0  0  0  0  0  0  0  0  0  0
   25.9232   -7.5833  -20.7683 O   0  0  0  0  0  0  0  0  0  0  0  0
   26.3842   -8.7673  -22.5935 O   0  0  0  0  0  0  0  0  0  0  0  0
   26.8996   -8.9190  -23.8091 C   0  0  0  0  0  0  0  0  0  0  0  0
   26.8875  -10.1726  -24.4218 C   0  0  0  0  0  0  0  0  0  0  0  0
   27.5378  -10.3618  -25.6453 C   0  0  0  0  0  0  0  0  0  0  0  0
   28.1765   -9.2844  -26.2930 C   0  0  0  0  0  0  0  0  0  0  0  0
   29.0327   -9.5870  -27.4648 C   0  0  0  0  0  0  0  0  0  0  0  0
   28.4157   -9.7592  -28.7203 C   0  0  0  0  0  0  0  0  0  0  0  0
   29.1809  -10.0765  -29.8473 C   0  0  0  0  0  0  0  0  0  0  0  0
   30.5635  -10.2291  -29.7325 C   0  0  0  0  0  0  0  0  0  0  0  0
   31.1826  -10.0640  -28.4953 C   0  0  0  0  0  0  0  0  0  0  0  0
   30.4448   -9.7447  -27.3459 C   0  0  0  0  0  0  0  0  0  0  0  0
   31.1999   -9.5764  -26.0706 C   0  0  0  0  0  0  0  0  0  0  0  0
   32.4488   -9.7606  -26.0572 O   0  0  0  0  0  0  0  0  0  0  0  0
   30.5520   -9.1903  -24.8964 O   0  0  0  0  0  0  0  0  0  0  0  0
   31.3301  -10.5451  -30.8471 O   0  0  0  0  0  0  0  0  0  0  0  0
   28.5642  -10.2413  -31.0827 O   0  0  0  0  0  0  0  0  0  0  0  0
   27.0376   -9.6118  -28.8509 O   0  0  0  0  0  0  0  0  0  0  0  0
   28.0911   -7.9785  -25.7337 C   0  0  0  0  0  0  0  0  0  0  0  0
   27.4885   -7.8274  -24.4674 C   0  0  0  0  0  0  0  0  0  0  0  0
   28.6369   -6.8153  -26.3348 C   0  0  0  0  0  0  0  0  0  0  0  0
   29.1279   -6.8478  -27.4939 O   0  0  0  0  0  0  0  0  0  0  0  0
   28.6382   -5.6561  -25.6807 O   0  0  0  0  0  0  0  0  0  0  0  0
   27.5763  -11.6368  -26.2032 O   0  0  0  0  0  0  0  0  0  0  0  0
   26.2665  -11.2466  -23.7930 O   0  0  0  0  0  0  0  0  0  0  0  0
   28.8241   -3.1957  -24.4471 O   0  0  0  0  0  0  0  0  0  0  0  0
   28.0774   -2.9673  -21.7880 O   0  0  0  0  0  0  0  0  0  0  0  0
   25.1360   -3.8833  -20.6322 O   0  0  0  0  0  0  0  0  0  0  0  0
   24.7751   -3.6990  -17.8848 O   0  0  0  0  0  0  0  0  0  0  0  0
   26.5962   -4.9109  -16.1485 O   0  0  0  0  0  0  0  0  0  0  0  0
   29.6031   -9.3084  -22.0440 O   0  0  0  0  0  0  0  0  0  0  0  0
   30.9194  -10.6573  -31.6818 H   0  0  0  0  0  0  0  0  0  0  0  0
   27.6361  -10.1391  -31.1605 H   0  0  0  0  0  0  0  0  0  0  0  0
   26.5160   -9.3994  -28.1020 H   0  0  0  0  0  0  0  0  0  0  0  0
   27.1508  -12.3506  -25.7703 H   0  0  0  0  0  0  0  0  0  0  0  0
   25.8304  -11.1212  -22.9732 H   0  0  0  0  0  0  0  0  0  0  0  0
   28.9033   -2.3739  -24.0040 H   0  0  0  0  0  0  0  0  0  0  0  0
   27.8178   -2.8772  -20.8922 H   0  0  0  0  0  0  0  0  0  0  0  0
   24.4024   -3.4190  -20.2798 H   0  0  0  0  0  0  0  0  0  0  0  0
   24.6496   -3.6373  -16.9583 H   0  0  0  0  0  0  0  0  0  0  0  0
   27.2096   -5.3181  -15.5690 H   0  0  0  0  0  0  0  0  0  0  0  0
   30.2576   -9.7928  -21.5168 H   0  0  0  0  0  0  0  0  0  0  0  0
   31.8395   -6.3229  -22.3398 C   0  0  0  0  0  0  0  0  0  0  0  0
   31.2898   -5.0656  -22.6109 O   0  0  0  0  0  0  0  0  0  0  0  0
   31.0064   -4.6508  -21.7811 H   0  0  0  0  0  0  0  0  0  0  0  0
   33.0827   -6.1999  -21.4628 C   0  0  0  0  0  0  0  0  0  0  0  0
   32.8237   -5.4079  -20.3388 O   0  0  0  0  0  0  0  0  0  0  0  0
   32.5733   -4.5150  -20.6233 H   0  0  0  0  0  0  0  0  0  0  0  0
   34.2220   -5.6421  -22.2616 C   0  0  0  0  0  0  0  0  0  0  0  0
   34.7482   -4.5810  -21.9642 O   0  0  0  0  0  0  0  0  0  0  0  0
  1  2  1  0  0  0
  2  3  1  0  0  0
  3  4  1  0  0  0
  4  5  1  0  0  0
  5  6  2  0  0  0
  5  7  1  0  0  0
  7  8  2  0  0  0
  8  9  1  0  0  0
  9 10  2  0  0  0
 10 11  1  0  0  0
 11 12  2  0  0  0
 12 13  1  0  0  0
 13 14  2  0  0  0
 14 15  1  0  0  0
 15 16  2  0  0  0
 16 17  1  0  0  0
 17 18  2  0  0  0
 18 19  1  0  0  0
 19 20  2  0  0  0
 19 21  1  0  0  0
 21 22  1  0  0  0
 22 23  2  0  0  0
 23 24  1  0  0  0
 24 25  2  0  0  0
 25 26  1  0  0  0
 26 27  2  0  0  0
 27 28  1  0  0  0
 28 29  2  0  0  0
 29 30  1  0  0  0
 30 31  2  0  0  0
 31 32  1  0  0  0
 32 33  2  0  0  0
 32 34  1  0  0  0
 29 35  1  0  0  0
 28 36  1  0  0  0
 27 37  1  0  0  0
 25 38  1  0  0  0
 38 39  2  0  0  0
 38 40  1  0  0  0
 40 41  2  0  0  0
 40 42  1  0  0  0
 24 43  1  0  0  0
 23 44  1  0  0  0
 15 45  1  0  0  0
 14 46  1  0  0  0
 11 47  1  0  0  0
 10 48  1  0  0  0
  9 49  1  0  0  0
  3 62  1  0  0  0
 62 65  1  0  0  0
 65 68  1  0  0  0
 68 69  2  0  0  0
 65 66  1  0  0  0
 62 63  1  0  0  0
  2 50  1  0  0  0
 34  1  1  0  0  0
 12  7  1  0  0  0
 18 13  1  0  0  0
 42 16  1  0  0  0
 39 17  1  0  0  0
 39 22  1  0  0  0
 31 26  1  0  0  0
 35 51  1  0  0  0
 36 52  1  0  0  0
 37 53  1  0  0  0
 43 54  1  0  0  0
 44 55  1  0  0  0
 45 56  1  0  0  0
 46 57  1  0  0  0
 47 58  1  0  0  0
 48 59  1  0  0  0
 49 60  1  0  0  0
 66 67  1  0  0  0
 63 64  1  0  0  0
 50 61  1  0  0  0
M  END
>  <minimizedAffinity>
156.40954

>  <minimizedRMSD>
8.71553

$$$$
MCULE-8858985465 MolPort-047-134-022 PubChem-131752575


 69 75  0  0  0  0  0  0  0  0999 V2000
   31.6593   -9.1045  -24.2882 C   0  0  0  0  0  0  0  0  0  0  0  0
   31.4792   -8.5560  -22.8796 C   0  0  0  0  0  0  0  0  0  0  0  0
   32.7733   -8.1456  -22.1712 C   0  0  0  0  0  0  0  0  0  0  0  0
   32.4358   -7.2488  -21.1168 O   0  0  0  0  0  0  0  0  0  0  0  0
   32.6153   -7.5488  -19.7649 C   0  0  0  0  0  0  0  0  0  0  0  0
   33.1921   -8.6228  -19.4373 O   0  0  0  0  0  0  0  0  0  0  0  0
   32.1446   -6.6117  -18.7067 C   0  0  0  0  0  0  0  0  0  0  0  0
   32.5608   -6.8558  -17.3903 C   0  0  0  0  0  0  0  0  0  0  0  0
   32.1742   -6.0221  -16.3426 C   0  0  0  0  0  0  0  0  0  0  0  0
   31.3568   -4.9181  -16.5932 C   0  0  0  0  0  0  0  0  0  0  0  0
   30.9192   -4.6517  -17.8949 C   0  0  0  0  0  0  0  0  0  0  0  0
   31.3002   -5.4919  -18.9600 C   0  0  0  0  0  0  0  0  0  0  0  0
   30.7989   -5.1877  -20.3222 C   0  0  0  0  0  0  0  0  0  0  0  0
   31.4598   -4.1883  -21.0658 C   0  0  0  0  0  0  0  0  0  0  0  0
   31.1972   -4.0258  -22.4302 C   0  0  0  0  0  0  0  0  0  0  0  0
   30.3073   -4.8837  -23.0793 C   0  0  0  0  0  0  0  0  0  0  0  0
   29.6022   -5.8451  -22.3386 C   0  0  0  0  0  0  0  0  0  0  0  0
   29.7981   -5.9815  -20.9485 C   0  0  0  0  0  0  0  0  0  0  0  0
   29.0161   -6.9550  -20.2758 C   0  0  0  0  0  0  0  0  0  0  0  0
   29.0678   -7.0841  -19.0242 O   0  0  0  0  0  0  0  0  0  0  0  0
   28.2006   -7.7538  -20.9595 O   0  0  0  0  0  0  0  0  0  0  0  0
   28.0687   -7.7004  -22.2809 C   0  0  0  0  0  0  0  0  0  0  0  0
   27.2702   -8.6346  -22.9417 C   0  0  0  0  0  0  0  0  0  0  0  0
   27.2278   -8.6576  -24.3394 C   0  0  0  0  0  0  0  0  0  0  0  0
   27.9558   -7.7159  -25.0953 C   0  0  0  0  0  0  0  0  0  0  0  0
   28.0511   -7.9247  -26.5599 C   0  0  0  0  0  0  0  0  0  0  0  0
   26.9792   -7.4982  -27.3697 C   0  0  0  0  0  0  0  0  0  0  0  0
   27.0122   -7.7029  -28.7529 C   0  0  0  0  0  0  0  0  0  0  0  0
   28.1087   -8.3369  -29.3392 C   0  0  0  0  0  0  0  0  0  0  0  0
   29.1719   -8.7652  -28.5470 C   0  0  0  0  0  0  0  0  0  0  0  0
   29.1708   -8.5745  -27.1574 C   0  0  0  0  0  0  0  0  0  0  0  0
   30.3603   -9.0568  -26.3976 C   0  0  0  0  0  0  0  0  0  0  0  0
   31.2948   -9.6441  -27.0106 O   0  0  0  0  0  0  0  0  0  0  0  0
   30.4708   -8.8439  -25.0229 O   0  0  0  0  0  0  0  0  0  0  0  0
   28.1484   -8.5448  -30.7123 O   0  0  0  0  0  0  0  0  0  0  0  0
   25.9519   -7.2758  -29.5447 O   0  0  0  0  0  0  0  0  0  0  0  0
   25.8778   -6.8655  -26.7999 O   0  0  0  0  0  0  0  0  0  0  0  0
   28.6772   -6.6865  -24.4279 C   0  0  0  0  0  0  0  0  0  0  0  0
   28.7585   -6.7262  -23.0203 C   0  0  0  0  0  0  0  0  0  0  0  0
   29.3860   -5.6507  -25.0891 C   0  0  0  0  0  0  0  0  0  0  0  0
   29.3086   -5.4994  -26.3369 O   0  0  0  0  0  0  0  0  0  0  0  0
   30.1511   -4.8097  -24.3972 O   0  0  0  0  0  0  0  0  0  0  0  0
   26.4826   -9.6441  -24.9794 O   0  0  0  0  0  0  0  0  0  0  0  0
   26.5504   -9.5736  -22.2104 O   0  0  0  0  0  0  0  0  0  0  0  0
   31.8618   -3.0399  -23.1517 O   0  0  0  0  0  0  0  0  0  0  0  0
   32.4130   -3.3768  -20.4567 O   0  0  0  0  0  0  0  0  0  0  0  0
   30.0959   -3.5534  -18.1272 O   0  0  0  0  0  0  0  0  0  0  0  0
   30.9748   -4.0854  -15.5470 O   0  0  0  0  0  0  0  0  0  0  0  0
   32.6081   -6.2959  -15.0516 O   0  0  0  0  0  0  0  0  0  0  0  0
   30.7845   -9.4802  -22.0993 O   0  0  0  0  0  0  0  0  0  0  0  0
   27.4364   -8.2589  -31.2501 H   0  0  0  0  0  0  0  0  0  0  0  0
   25.2155   -6.8500  -29.1517 H   0  0  0  0  0  0  0  0  0  0  0  0
   25.8461   -6.7236  -25.8742 H   0  0  0  0  0  0  0  0  0  0  0  0
   25.9999  -10.2684  -24.4742 H   0  0  0  0  0  0  0  0  0  0  0  0
   26.5779   -9.5593  -21.2740 H   0  0  0  0  0  0  0  0  0  0  0  0
   32.4593   -2.4636  -22.7170 H   0  0  0  0  0  0  0  0  0  0  0  0
   32.5980   -3.4758  -19.5435 H   0  0  0  0  0  0  0  0  0  0  0  0
   29.8450   -2.9973  -17.4160 H   0  0  0  0  0  0  0  0  0  0  0  0
   31.2679   -4.2639  -14.6751 H   0  0  0  0  0  0  0  0  0  0  0  0
   33.1566   -7.0381  -14.8892 H   0  0  0  0  0  0  0  0  0  0  0  0
   31.3118  -10.2896  -22.0105 H   0  0  0  0  0  0  0  0  0  0  0  0
   33.7738   -7.4733  -23.1183 C   0  0  0  0  0  0  0  0  0  0  0  0
   34.4271   -8.4195  -23.9148 O   0  0  0  0  0  0  0  0  0  0  0  0
   33.7782   -8.8754  -24.4734 H   0  0  0  0  0  0  0  0  0  0  0  0
   33.1038   -6.4034  -23.9765 C   0  0  0  0  0  0  0  0  0  0  0  0
   32.4711   -6.9772  -25.0847 O   0  0  0  0  0  0  0  0  0  0  0  0
   33.1300   -7.4280  -25.6357 H   0  0  0  0  0  0  0  0  0  0  0  0
   34.1133   -5.3812  -24.4043 C   0  0  0  0  0  0  0  0  0  0  0  0
   35.2289   -5.7068  -24.7796 O   0  0  0  0  0  0  0  0  0  0  0  0
  1  2  1  0  0  0
  2  3  1  0  0  0
  3  4  1  0  0  0
  4  5  1  0  0  0
  5  6  2  0  0  0
  5  7  1  0  0  0
  7  8  2  0  0  0
  8  9  1  0  0  0
  9 10  2  0  0  0
 10 11  1  0  0  0
 11 12  2  0  0  0
 12 13  1  0  0  0
 13 14  2  0  0  0
 14 15  1  0  0  0
 15 16  2  0  0  0
 16 17  1  0  0  0
 17 18  2  0  0  0
 18 19  1  0  0  0
 19 20  2  0  0  0
 19 21  1  0  0  0
 21 22  1  0  0  0
 22 23  2  0  0  0
 23 24  1  0  0  0
 24 25  2  0  0  0
 25 26  1  0  0  0
 26 27  2  0  0  0
 27 28  1  0  0  0
 28 29  2  0  0  0
 29 30  1  0  0  0
 30 31  2  0  0  0
 31 32  1  0  0  0
 32 33  2  0  0  0
 32 34  1  0  0  0
 29 35  1  0  0  0
 28 36  1  0  0  0
 27 37  1  0  0  0
 25 38  1  0  0  0
 38 39  2  0  0  0
 38 40  1  0  0  0
 40 41  2  0  0  0
 40 42  1  0  0  0
 24 43  1  0  0  0
 23 44  1  0  0  0
 15 45  1  0  0  0
 14 46  1  0  0  0
 11 47  1  0  0  0
 10 48  1  0  0  0
  9 49  1  0  0  0
  3 62  1  0  0  0
 62 65  1  0  0  0
 65 68  1  0  0  0
 68 69  2  0  0  0
 65 66  1  0  0  0
 62 63  1  0  0  0
  2 50  1  0  0  0
 34  1  1  0  0  0
 12  7  1  0  0  0
 18 13  1  0  0  0
 42 16  1  0  0  0
 39 17  1  0  0  0
 39 22  1  0  0  0
 31 26  1  0  0  0
 35 51  1  0  0  0
 36 52  1  0  0  0
 37 53  1  0  0  0
 43 54  1  0  0  0
 44 55  1  0  0  0
 45 56  1  0  0  0
 46 57  1  0  0  0
 47 58  1  0  0  0
 48 59  1  0  0  0
 49 60  1  0  0  0
 66 67  1  0  0  0
 63 64  1  0  0  0
 50 61  1  0  0  0
M  END
>  <minimizedAffinity>
160.66902

>  <minimizedRMSD>
4.21014

$$$$
MCULE-6883722572 MolPort-046-594-386 PubChem-13991179


 56 61  0  0  0  0  0  0  0  0999 V2000
   26.1009   -2.4567  -20.7970 C   0  0  0  0  0  0  0  0  0  0  0  0
   25.7448   -3.6787  -20.1954 O   0  0  0  0  0  0  0  0  0  0  0  0
   26.9324   -4.2970  -19.7596 C   0  0  0  0  0  0  0  0  0  0  0  0
   28.0596   -3.2883  -19.7437 C   0  0  0  0  0  0  0  0  0  0  0  0
   27.5662   -2.1552  -20.5618 C   0  0  0  0  0  0  0  0  0  0  0  0
   27.6989   -0.9529  -19.6567 C   0  0  0  0  0  0  0  0  0  0  0  0
   27.7590   -1.3888  -18.3211 O   0  0  0  0  0  0  0  0  0  0  0  0
   28.2297   -2.7085  -18.3455 C   0  0  0  0  0  0  0  0  0  0  0  0
   24.7577   -1.3588  -24.1782 C   0  0  0  0  0  0  0  0  0  0  0  0
   25.2186   -2.3900  -25.0124 C   0  0  0  0  0  0  0  0  0  0  0  0
   25.9630   -3.4507  -24.4630 C   0  0  0  0  0  0  0  0  0  0  0  0
   26.2453   -3.4862  -23.0954 C   0  0  0  0  0  0  0  0  0  0  0  0
   25.7815   -2.4643  -22.2599 C   0  0  0  0  0  0  0  0  0  0  0  0
   25.0420   -1.4038  -22.8031 C   0  0  0  0  0  0  0  0  0  0  0  0
   23.6461    0.8456  -23.9793 C   0  0  0  0  0  0  0  0  0  0  0  0
   24.0343   -0.2955  -24.7344 O   0  0  0  0  0  0  0  0  0  0  0  0
   24.9425   -2.3316  -26.3836 O   0  0  0  0  0  0  0  0  0  0  0  0
   25.2472   -3.3904  -27.2827 C   0  0  0  0  0  0  0  0  0  0  0  0
   25.3847   -2.8742  -28.5904 O   0  0  0  0  0  0  0  0  0  0  0  0
   25.8837   -3.8888  -29.4476 C   0  0  0  0  0  0  0  0  0  0  0  0
   24.8999   -5.0705  -29.5522 C   0  0  0  0  0  0  0  0  0  0  0  0
   25.4038   -6.0877  -30.3713 O   0  0  0  0  0  0  0  0  0  0  0  0
   24.4987   -5.6107  -28.1752 C   0  0  0  0  0  0  0  0  0  0  0  0
   25.5228   -6.3885  -27.6295 O   0  0  0  0  0  0  0  0  0  0  0  0
   24.1545   -4.4650  -27.2232 C   0  0  0  0  0  0  0  0  0  0  0  0
   22.9186   -3.9172  -27.5665 O   0  0  0  0  0  0  0  0  0  0  0  0
   26.2131   -6.4492  -29.9771 H   0  0  0  0  0  0  0  0  0  0  0  0
   26.3145   -5.8414  -27.5078 H   0  0  0  0  0  0  0  0  0  0  0  0
   22.9588   -3.5704  -28.4715 H   0  0  0  0  0  0  0  0  0  0  0  0
   27.3220   -4.3045  -29.1031 C   0  0  0  0  0  0  0  0  0  0  0  0
   28.1777   -3.2069  -29.2272 O   0  0  0  0  0  0  0  0  0  0  0  0
   28.1525   -2.8789  -30.1397 H   0  0  0  0  0  0  0  0  0  0  0  0
   29.6486   -2.7655  -17.8794 C   0  0  0  0  0  0  0  0  0  0  0  0
   30.7080   -2.3992  -18.7228 C   0  0  0  0  0  0  0  0  0  0  0  0
   32.0361   -2.4415  -18.2683 C   0  0  0  0  0  0  0  0  0  0  0  0
   32.3031   -2.8321  -16.9479 C   0  0  0  0  0  0  0  0  0  0  0  0
   31.2377   -3.1893  -16.1024 C   0  0  0  0  0  0  0  0  0  0  0  0
   29.9200   -3.1600  -16.5676 C   0  0  0  0  0  0  0  0  0  0  0  0
   33.1011   -2.0967  -19.1080 O   0  0  0  0  0  0  0  0  0  0  0  0
   32.9211   -1.7262  -20.4678 C   0  0  0  0  0  0  0  0  0  0  0  0
   33.6320   -2.8473  -16.4972 O   0  0  0  0  0  0  0  0  0  0  0  0
   33.9976   -3.1496  -15.1544 C   0  0  0  0  0  0  0  0  0  0  0  0
   35.2421   -2.5629  -14.8629 O   0  0  0  0  0  0  0  0  0  0  0  0
   35.3882   -2.6333  -13.4659 C   0  0  0  0  0  0  0  0  0  0  0  0
   35.6499   -4.0827  -13.0312 C   0  0  0  0  0  0  0  0  0  0  0  0
   36.8460   -4.5511  -13.5800 O   0  0  0  0  0  0  0  0  0  0  0  0
   34.4872   -4.9736  -13.4881 C   0  0  0  0  0  0  0  0  0  0  0  0
   33.4005   -4.7980  -12.6310 O   0  0  0  0  0  0  0  0  0  0  0  0
   34.0601   -4.6716  -14.9328 C   0  0  0  0  0  0  0  0  0  0  0  0
   34.9617   -5.2587  -15.8278 O   0  0  0  0  0  0  0  0  0  0  0  0
   36.7882   -4.5286  -14.5481 H   0  0  0  0  0  0  0  0  0  0  0  0
   33.1051   -3.8748  -12.6684 H   0  0  0  0  0  0  0  0  0  0  0  0
   35.8480   -4.8933  -15.6802 H   0  0  0  0  0  0  0  0  0  0  0  0
   36.5030   -1.7091  -13.0070 C   0  0  0  0  0  0  0  0  0  0  0  0
   36.1407   -0.3865  -13.2506 O   0  0  0  0  0  0  0  0  0  0  0  0
   35.9892   -0.2625  -14.2006 H   0  0  0  0  0  0  0  0  0  0  0  0
 15 16  1  0  0  0
 16  9  1  0  0  0
  9 10  2  0  0  0
 10 17  1  0  0  0
 17 18  1  0  0  0
 18 19  1  0  0  0
 19 20  1  0  0  0
 20 30  1  0  0  0
 30 31  1  0  0  0
 20 21  1  0  0  0
 21 22  1  0  0  0
 21 23  1  0  0  0
 23 24  1  0  0  0
 23 25  1  0  0  0
 25 26  1  0  0  0
 10 11  1  0  0  0
 11 12  2  0  0  0
 12 13  1  0  0  0
 13 14  2  0  0  0
 13  1  1  0  0  0
  1  2  1  0  0  0
  2  3  1  0  0  0
  3  4  1  0  0  0
  4  5  1  0  0  0
  5  6  1  0  0  0
  6  7  1  0  0  0
  7  8  1  0  0  0
  8 33  1  0  0  0
 33 34  2  0  0  0
 34 35  1  0  0  0
 35 39  1  0  0  0
 39 40  1  0  0  0
 35 36  2  0  0  0
 36 41  1  0  0  0
 41 42  1  0  0  0
 42 43  1  0  0  0
 43 44  1  0  0  0
 44 54  1  0  0  0
 54 55  1  0  0  0
 44 45  1  0  0  0
 45 46  1  0  0  0
 45 47  1  0  0  0
 47 48  1  0  0  0
 47 49  1  0  0  0
 49 50  1  0  0  0
 36 37  1  0  0  0
 37 38  2  0  0  0
 14  9  1  0  0  0
  5  1  1  0  0  0
 38 33  1  0  0  0
 25 18  1  0  0  0
  8  4  1  0  0  0
 49 42  1  0  0  0
 31 32  1  0  0  0
 22 27  1  0  0  0
 24 28  1  0  0  0
 26 29  1  0  0  0
 55 56  1  0  0  0
 46 51  1  0  0  0
 48 52  1  0  0  0
 50 53  1  0  0  0
M  END
>  <minimizedAffinity>
164.46459

>  <minimizedRMSD>
0.80910

$$$$
MCULE-9073780365 PubChem-90478300 ZINC000263584023


 80 86  0  0  0  0  0  0  0  0999 V2000
   28.3693    2.5922  -18.5802 C   0  0  0  0  0  0  0  0  0  0  0  0
   28.0486    1.1176  -18.8316 C   0  0  0  0  0  0  0  0  0  0  0  0
   26.5953    0.9937  -19.3022 C   0  0  0  0  0  0  0  0  0  0  0  0
   25.6009    1.4190  -18.2248 C   0  0  0  0  0  0  0  0  0  0  0  0
   25.7985    0.5782  -16.9570 C   0  0  0  0  0  0  0  0  0  0  0  0
   27.2394    0.5723  -16.3979 C   0  0  0  0  0  0  0  0  0  0  0  0
   28.2259    0.2576  -17.5504 C   0  0  0  0  0  0  0  0  0  0  0  0
   29.6884    0.1483  -17.1106 C   0  0  0  0  0  0  0  0  0  0  0  0
   30.5110   -0.5017  -18.2195 C   0  0  0  0  0  0  0  0  0  0  0  0
   30.4617    0.3165  -19.5180 C   0  0  0  0  0  0  0  0  0  0  0  0
   28.9727    0.5585  -19.9388 C   0  0  0  0  0  0  0  0  0  0  0  0
   28.8259    1.2637  -21.3096 C   0  0  0  0  0  0  0  0  0  0  0  0
   29.6234    0.5492  -22.4094 C   0  0  0  0  0  0  0  0  0  0  0  0
   31.0719    0.4214  -21.9238 C   0  0  0  0  0  0  0  0  0  0  0  0
   31.1423   -0.4567  -20.6805 C   0  0  0  0  0  0  0  0  0  0  0  0
   32.6260   -0.7136  -20.5424 C   0  0  0  0  0  0  0  0  0  0  0  0
   33.1001   -0.8958  -21.9823 C   0  0  0  0  0  0  0  0  0  0  0  0
   32.2012   -0.0134  -22.8647 C   0  0  0  0  0  0  0  0  0  0  0  0
   30.4586   -1.8174  -20.9092 C   0  0  0  0  0  0  0  0  0  0  0  0
   29.5390    1.2858  -23.5879 O   0  0  0  0  0  0  0  0  0  0  0  0
   31.1871    1.6460  -19.2738 C   0  0  0  0  0  0  0  0  0  0  0  0
   27.5923    1.8965  -15.7296 C   0  0  0  0  0  0  0  0  0  0  0  0
   27.3367   -0.5250  -15.3496 C   0  0  0  0  0  0  0  0  0  0  0  0
   29.8871    2.1785  -23.4369 H   0  0  0  0  0  0  0  0  0  0  0  0
   33.0324    1.1911  -23.3876 C   0  0  0  0  0  0  0  0  0  0  0  0
   33.6389    0.8547  -24.7553 C   0  0  0  0  0  0  0  0  0  0  0  0
   34.1807    1.4793  -22.3913 C   0  0  0  0  0  0  0  0  0  0  0  0
   35.5180    1.0177  -22.8858 C   0  0  0  0  0  0  0  0  0  0  0  0
   35.8781    1.2363  -24.1519 C   0  0  0  0  0  0  0  0  0  0  0  0
   37.2023    0.7845  -24.6883 C   0  0  0  0  0  0  0  0  0  0  0  0
   36.9696   -0.1057  -25.8903 C   0  0  0  0  0  0  0  0  0  0  0  0
   37.9603   -0.0016  -23.6348 C   0  0  0  0  0  0  0  0  0  0  0  0
   37.9602    1.8884  -25.0798 O   0  0  0  0  0  0  0  0  0  0  0  0
   37.4756    2.3909  -25.7533 H   0  0  0  0  0  0  0  0  0  0  0  0
   32.1594    2.3116  -23.4885 O   0  0  0  0  0  0  0  0  0  0  0  0
   31.6976    2.7159  -22.2201 C   0  0  0  0  0  0  0  0  0  0  0  0
   32.8559    3.3194  -21.4243 C   0  0  0  0  0  0  0  0  0  0  0  0
   32.3527    3.7794  -20.0567 C   0  0  0  0  0  0  0  0  0  0  0  0
   31.0503    4.5758  -20.1738 C   0  0  0  0  0  0  0  0  0  0  0  0
   30.0850    3.8479  -21.1195 C   0  0  0  0  0  0  0  0  0  0  0  0
   30.6898    3.6837  -22.3790 O   0  0  0  0  0  0  0  0  0  0  0  0
   30.4765    4.7019  -18.9080 O   0  0  0  0  0  0  0  0  0  0  0  0
   33.3262    4.5631  -19.4355 O   0  0  0  0  0  0  0  0  0  0  0  0
   33.8611    2.3658  -21.2561 O   0  0  0  0  0  0  0  0  0  0  0  0
   30.2911    3.8205  -18.5478 H   0  0  0  0  0  0  0  0  0  0  0  0
   33.4990    5.3512  -19.9740 H   0  0  0  0  0  0  0  0  0  0  0  0
   33.5062    1.6039  -20.7718 H   0  0  0  0  0  0  0  0  0  0  0  0
   28.8018    4.6472  -21.2803 C   0  0  0  0  0  0  0  0  0  0  0  0
   28.1194    4.6927  -20.0642 O   0  0  0  0  0  0  0  0  0  0  0  0
   27.9007    3.7907  -19.7822 H   0  0  0  0  0  0  0  0  0  0  0  0
   24.7746    0.7013  -15.9844 O   0  0  0  0  0  0  0  0  0  0  0  0
   23.9611   -0.4455  -15.9973 C   0  0  0  0  0  0  0  0  0  0  0  0
   24.4149   -1.4028  -17.1072 C   0  0  0  0  0  0  0  0  0  0  0  0
   23.5118   -2.6386  -17.1008 C   0  0  0  0  0  0  0  0  0  0  0  0
   23.3250   -3.1918  -15.6856 C   0  0  0  0  0  0  0  0  0  0  0  0
   23.0158   -2.0421  -14.7171 C   0  0  0  0  0  0  0  0  0  0  0  0
   24.0569   -1.0974  -14.7561 O   0  0  0  0  0  0  0  0  0  0  0  0
   22.2743   -4.1122  -15.6869 O   0  0  0  0  0  0  0  0  0  0  0  0
   24.0572   -3.6256  -17.9223 O   0  0  0  0  0  0  0  0  0  0  0  0
   21.4593   -3.6721  -15.9747 H   0  0  0  0  0  0  0  0  0  0  0  0
   24.9271   -3.8859  -17.5812 H   0  0  0  0  0  0  0  0  0  0  0  0
   22.8710   -2.5733  -13.2996 C   0  0  0  0  0  0  0  0  0  0  0  0
   23.9854   -2.2162  -12.5418 O   0  0  0  0  0  0  0  0  0  0  0  0
   24.7836   -2.5952  -12.9421 H   0  0  0  0  0  0  0  0  0  0  0  0
   24.3334   -0.7713  -18.3534 O   0  0  0  0  0  0  0  0  0  0  0  0
   22.9786   -0.4800  -18.5289 C   0  0  0  0  0  0  0  0  0  0  0  0
   22.7709    1.0416  -18.4939 C   0  0  0  0  0  0  0  0  0  0  0  0
   21.7275    1.5189  -19.5140 C   0  0  0  0  0  0  0  0  0  0  0  0
   20.6173    0.4887  -19.7716 C   0  0  0  0  0  0  0  0  0  0  0  0
   21.1275   -0.9599  -19.6870 C   0  0  0  0  0  0  0  0  0  0  0  0
   22.5298   -1.0186  -19.7465 O   0  0  0  0  0  0  0  0  0  0  0  0
   19.5853    0.6690  -18.8503 O   0  0  0  0  0  0  0  0  0  0  0  0
   22.3646    1.8254  -20.7166 O   0  0  0  0  0  0  0  0  0  0  0  0
   22.3901    1.4325  -17.2104 O   0  0  0  0  0  0  0  0  0  0  0  0
   19.9230    0.5204  -17.9533 H   0  0  0  0  0  0  0  0  0  0  0  0
   22.7829    1.0264  -21.0736 H   0  0  0  0  0  0  0  0  0  0  0  0
   21.5454    1.0136  -16.9821 H   0  0  0  0  0  0  0  0  0  0  0  0
   20.5119   -1.8196  -20.7810 C   0  0  0  0  0  0  0  0  0  0  0  0
   20.2931   -1.0637  -21.9356 O   0  0  0  0  0  0  0  0  0  0  0  0
   19.6824   -0.3371  -21.7355 H   0  0  0  0  0  0  0  0  0  0  0  0
  2  1  1  0  0  0
  2  3  1  0  0  0
  3  4  1  0  0  0
  4  5  1  0  0  0
  5  6  1  0  0  0
  5 51  1  0  0  0
  6 22  1  0  0  0
  6 23  1  0  0  0
  7  6  1  0  0  0
  7  8  1  0  0  0
  7  2  1  0  0  0
  8  9  1  0  0  0
  9 10  1  0  0  0
 10 11  1  0  0  0
 10 21  1  0  0  0
 11 12  1  0  0  0
 11  2  1  0  0  0
 12 13  1  0  0  0
 13 20  1  0  0  0
 14 13  1  0  0  0
 14 15  1  0  0  0
 15 16  1  0  0  0
 15 19  1  0  0  0
 15 10  1  0  0  0
 16 17  1  0  0  0
 18 17  1  0  0  0
 18 25  1  0  0  0
 18 14  1  0  0  0
 25 26  1  0  0  0
 25 27  1  0  0  0
 25 35  1  0  0  0
 27 28  1  0  0  0
 28 29  2  0  0  0
 29 30  1  0  0  0
 30 31  1  0  0  0
 30 32  1  0  0  0
 30 33  1  0  0  0
 36 35  1  0  0  0
 36 37  1  0  0  0
 37 38  1  0  0  0
 37 44  1  0  0  0
 38 39  1  0  0  0
 38 43  1  0  0  0
 39 40  1  0  0  0
 39 42  1  0  0  0
 40 41  1  0  0  0
 40 48  1  0  0  0
 41 36  1  0  0  0
 48 49  1  0  0  0
 52 51  1  0  0  0
 52 53  1  0  0  0
 53 54  1  0  0  0
 53 65  1  0  0  0
 54 55  1  0  0  0
 54 59  1  0  0  0
 55 56  1  0  0  0
 55 58  1  0  0  0
 56 57  1  0  0  0
 56 62  1  0  0  0
 57 52  1  0  0  0
 62 63  1  0  0  0
 66 65  1  0  0  0
 66 67  1  0  0  0
 67 68  1  0  0  0
 67 74  1  0  0  0
 68 69  1  0  0  0
 68 73  1  0  0  0
 69 70  1  0  0  0
 69 72  1  0  0  0
 70 71  1  0  0  0
 70 78  1  0  0  0
 71 66  1  0  0  0
 78 79  1  0  0  0
 33 34  1  0  0  0
 49 50  1  0  0  0
 42 45  1  0  0  0
 43 46  1  0  0  0
 44 47  1  0  0  0
 20 24  1  0  0  0
 63 64  1  0  0  0
 58 60  1  0  0  0
 59 61  1  0  0  0
 79 80  1  0  0  0
 72 75  1  0  0  0
 73 76  1  0  0  0
 74 77  1  0  0  0
M  END
>  <minimizedAffinity>
165.12074

>  <minimizedRMSD>
10.63229

$$$$
MCULE-4369830162 LN00371136 MolPort-000-763-367 MolPort-008-346-773 PubChem-5096227


 65 69  0  0  0  0  0  0  0  0999 V2000
   27.9187   -2.6850  -20.9545 C   0  0  0  0  0  0  0  0  0  0  0  0
   28.2370   -1.7834  -21.9876 O   0  0  0  0  0  0  0  0  0  0  0  0
   27.5462   -2.2393  -23.1245 C   0  0  0  0  0  0  0  0  0  0  0  0
   26.0353   -1.9893  -22.9911 C   0  0  0  0  0  0  0  0  0  0  0  0
   25.6410   -1.7209  -21.5329 C   0  0  0  0  0  0  0  0  0  0  0  0
   24.2669   -1.8945  -21.3558 O   0  0  0  0  0  0  0  0  0  0  0  0
   26.4392   -2.5828  -20.5421 C   0  0  0  0  0  0  0  0  0  0  0  0
   25.9002   -3.8689  -20.4654 O   0  0  0  0  0  0  0  0  0  0  0  0
   24.0303   -2.8160  -21.5453 H   0  0  0  0  0  0  0  0  0  0  0  0
   25.9585   -4.2962  -21.3342 H   0  0  0  0  0  0  0  0  0  0  0  0
   28.7352   -2.4394  -19.8478 O   0  0  0  0  0  0  0  0  0  0  0  0
   31.4291   -2.4506  -20.5581 C   0  0  0  0  0  0  0  0  0  0  0  0
   30.9214   -3.4827  -19.5653 C   0  0  0  0  0  0  0  0  0  0  0  0
   31.3498   -3.1683  -18.2638 O   0  0  0  0  0  0  0  0  0  0  0  0
   31.2772   -4.3432  -17.4725 C   0  0  0  0  0  0  0  0  0  0  0  0
   29.9553   -5.1460  -17.6227 C   0  0  0  0  0  0  0  0  0  0  0  0
   30.1578   -6.3165  -18.3592 O   0  0  0  0  0  0  0  0  0  0  0  0
   28.8719   -4.3010  -18.2975 C   0  0  0  0  0  0  0  0  0  0  0  0
   28.4227   -3.3280  -17.4000 O   0  0  0  0  0  0  0  0  0  0  0  0
   29.3901   -3.6548  -19.6024 C   0  0  0  0  0  0  0  0  0  0  0  0
   30.4533   -6.0882  -19.2545 H   0  0  0  0  0  0  0  0  0  0  0  0
   29.1615   -2.7497  -17.1535 H   0  0  0  0  0  0  0  0  0  0  0  0
   32.4098   -5.1449  -17.6663 O   0  0  0  0  0  0  0  0  0  0  0  0
   33.1481   -5.0199  -16.4871 C   0  0  0  0  0  0  0  0  0  0  0  0
   33.2105   -6.3789  -15.7691 C   0  0  0  0  0  0  0  0  0  0  0  0
   34.4826   -6.9662  -15.8963 O   0  0  0  0  0  0  0  0  0  0  0  0
   35.3479   -6.1928  -15.1005 C   0  0  0  0  0  0  0  0  0  0  0  0
   36.5772   -6.8388  -14.9782 O   0  0  0  0  0  0  0  0  0  0  0  0
   35.5588   -4.7879  -15.6881 C   0  0  0  0  0  0  0  0  0  0  0  0
   35.4401   -3.8445  -14.6653 O   0  0  0  0  0  0  0  0  0  0  0  0
   34.5525   -4.4962  -16.8125 C   0  0  0  0  0  0  0  0  0  0  0  0
   34.5118   -3.1326  -17.1096 O   0  0  0  0  0  0  0  0  0  0  0  0
   36.9804   -6.9353  -15.8551 H   0  0  0  0  0  0  0  0  0  0  0  0
   34.5516   -3.8959  -14.2795 H   0  0  0  0  0  0  0  0  0  0  0  0
   34.2018   -2.6416  -16.3326 H   0  0  0  0  0  0  0  0  0  0  0  0
   25.6720   -0.8969  -23.7818 O   0  0  0  0  0  0  0  0  0  0  0  0
   24.7306   -1.4012  -24.6903 C   0  0  0  0  0  0  0  0  0  0  0  0
   25.2536   -1.4485  -26.0040 O   0  0  0  0  0  0  0  0  0  0  0  0
   25.5714   -0.1396  -26.4295 C   0  0  0  0  0  0  0  0  0  0  0  0
   24.2961    0.7032  -26.5904 C   0  0  0  0  0  0  0  0  0  0  0  0
   23.5629    0.7730  -25.2431 C   0  0  0  0  0  0  0  0  0  0  0  0
   24.2391    1.6146  -24.3557 O   0  0  0  0  0  0  0  0  0  0  0  0
   23.4125   -0.6164  -24.6240 C   0  0  0  0  0  0  0  0  0  0  0  0
   22.4095   -1.3232  -25.2892 O   0  0  0  0  0  0  0  0  0  0  0  0
   25.1252    1.2592  -24.1846 H   0  0  0  0  0  0  0  0  0  0  0  0
   22.6536   -1.4304  -26.2218 H   0  0  0  0  0  0  0  0  0  0  0  0
   26.3730   -0.2081  -27.7232 C   0  0  0  0  0  0  0  0  0  0  0  0
   25.6812   -0.9382  -28.6920 O   0  0  0  0  0  0  0  0  0  0  0  0
   25.5354   -1.8424  -28.3726 H   0  0  0  0  0  0  0  0  0  0  0  0
   24.6098    2.0038  -27.0381 O   0  0  0  0  0  0  0  0  0  0  0  0
   23.6557    2.4107  -28.0003 C   0  0  0  0  0  0  0  0  0  0  0  0
   22.3360    2.3176  -27.5027 O   0  0  0  0  0  0  0  0  0  0  0  0
   21.5097    3.0260  -28.3939 C   0  0  0  0  0  0  0  0  0  0  0  0
   21.3942    2.2817  -29.7307 C   0  0  0  0  0  0  0  0  0  0  0  0
   20.8767    0.9967  -29.5345 O   0  0  0  0  0  0  0  0  0  0  0  0
   22.7916    2.1986  -30.3479 C   0  0  0  0  0  0  0  0  0  0  0  0
   22.7750    1.3960  -31.4901 O   0  0  0  0  0  0  0  0  0  0  0  0
   23.8194    1.6723  -29.3430 C   0  0  0  0  0  0  0  0  0  0  0  0
   25.1035    1.8904  -29.8438 O   0  0  0  0  0  0  0  0  0  0  0  0
   21.4629    0.4988  -28.9434 H   0  0  0  0  0  0  0  0  0  0  0  0
   22.5117    0.4944  -31.2480 H   0  0  0  0  0  0  0  0  0  0  0  0
   25.2392    2.8408  -29.9827 H   0  0  0  0  0  0  0  0  0  0  0  0
   20.1497    3.3079  -27.7659 C   0  0  0  0  0  0  0  0  0  0  0  0
   19.5641    2.1314  -27.2948 O   0  0  0  0  0  0  0  0  0  0  0  0
   19.4345    1.5163  -28.0336 H   0  0  0  0  0  0  0  0  0  0  0  0
 13 12  1  0  0  0
 13 14  1  0  0  0
 14 15  1  0  0  0
 15 23  1  0  0  0
 15 16  1  0  0  0
 24 23  1  0  0  0
 24 25  1  0  0  0
 25 26  1  0  0  0
 26 27  1  0  0  0
 27 28  1  0  0  0
 27 29  1  0  0  0
 29 30  1  0  0  0
 29 31  1  0  0  0
 31 32  1  0  0  0
 31 24  1  0  0  0
 16 17  1  0  0  0
 16 18  1  0  0  0
 18 19  1  0  0  0
 18 20  1  0  0  0
 20 11  1  0  0  0
 20 13  1  0  0  0
  1 11  1  0  0  0
  1  2  1  0  0  0
  2  3  1  0  0  0
  3  4  1  0  0  0
  4 36  1  0  0  0
  4  5  1  0  0  0
 37 36  1  0  0  0
 37 38  1  0  0  0
 38 39  1  0  0  0
 39 47  1  0  0  0
 39 40  1  0  0  0
 47 48  1  0  0  0
 40 50  1  0  0  0
 40 41  1  0  0  0
 51 50  1  0  0  0
 51 52  1  0  0  0
 52 53  1  0  0  0
 53 63  1  0  0  0
 53 54  1  0  0  0
 63 64  1  0  0  0
 54 55  1  0  0  0
 54 56  1  0  0  0
 56 57  1  0  0  0
 56 58  1  0  0  0
 58 59  1  0  0  0
 58 51  1  0  0  0
 41 42  1  0  0  0
 41 43  1  0  0  0
 43 44  1  0  0  0
 43 37  1  0  0  0
  5  6  1  0  0  0
  5  7  1  0  0  0
  7  8  1  0  0  0
  7  1  1  0  0  0
 28 33  1  0  0  0
 30 34  1  0  0  0
 32 35  1  0  0  0
 17 21  1  0  0  0
 19 22  1  0  0  0
 48 49  1  0  0  0
 64 65  1  0  0  0
 55 60  1  0  0  0
 57 61  1  0  0  0
 59 62  1  0  0  0
 42 45  1  0  0  0
 44 46  1  0  0  0
  6  9  1  0  0  0
  8 10  1  0  0  0
M  END
>  <minimizedAffinity>
165.83213

>  <minimizedRMSD>
0.57902

$$$$
MCULE-8681385857 CHEMBL1744031 PubChem-5490298 ZINC000072129823


 53 57  0  0  0  0  0  0  0  0999 V2000
   26.2371   -4.4940  -19.1066 O   0  0  0  0  0  0  0  0  0  0  0  0
   26.9552   -3.8764  -19.9351 C   0  0  0  0  0  0  0  0  0  0  0  0
   28.2059   -3.4148  -19.5323 C   0  0  0  0  0  0  0  0  0  0  0  0
   29.0246   -2.7449  -20.4490 C   0  0  0  0  0  0  0  0  0  0  0  0
   28.6009   -2.5561  -21.6969 O   0  0  0  0  0  0  0  0  0  0  0  0
   27.4110   -2.9651  -22.1261 C   0  0  0  0  0  0  0  0  0  0  0  0
   27.0394   -2.7174  -23.4491 C   0  0  0  0  0  0  0  0  0  0  0  0
   25.7924   -3.1379  -23.9309 C   0  0  0  0  0  0  0  0  0  0  0  0
   24.9198   -3.8136  -23.0773 C   0  0  0  0  0  0  0  0  0  0  0  0
   25.2715   -4.0764  -21.7504 C   0  0  0  0  0  0  0  0  0  0  0  0
   24.3666   -4.7620  -20.9465 O   0  0  0  0  0  0  0  0  0  0  0  0
   26.5261   -3.6497  -21.2569 C   0  0  0  0  0  0  0  0  0  0  0  0
   23.5413   -5.0343  -21.2969 H   0  0  0  0  0  0  0  0  0  0  0  0
   30.3530   -2.2428  -20.0470 C   0  0  0  0  0  0  0  0  0  0  0  0
   31.2653   -1.8246  -21.0214 C   0  0  0  0  0  0  0  0  0  0  0  0
   32.5216   -1.3430  -20.6530 C   0  0  0  0  0  0  0  0  0  0  0  0
   32.8822   -1.2632  -19.3053 C   0  0  0  0  0  0  0  0  0  0  0  0
   34.1412   -0.7704  -18.9850 O   0  0  0  0  0  0  0  0  0  0  0  0
   31.9664   -1.6706  -18.3076 C   0  0  0  0  0  0  0  0  0  0  0  0
   30.7162   -2.1621  -18.6960 C   0  0  0  0  0  0  0  0  0  0  0  0
   34.7286   -0.5075  -19.6660 H   0  0  0  0  0  0  0  0  0  0  0  0
   32.2223   -1.5877  -16.9320 O   0  0  0  0  0  0  0  0  0  0  0  0
   33.4313   -1.1065  -16.3490 C   0  0  0  0  0  0  0  0  0  0  0  0
   34.4242   -2.1132  -16.3039 O   0  0  0  0  0  0  0  0  0  0  0  0
   33.9517   -3.1858  -15.5164 C   0  0  0  0  0  0  0  0  0  0  0  0
   33.8289   -2.7683  -14.0427 C   0  0  0  0  0  0  0  0  0  0  0  0
   35.0794   -2.4313  -13.5198 O   0  0  0  0  0  0  0  0  0  0  0  0
   32.8754   -1.5777  -13.9174 C   0  0  0  0  0  0  0  0  0  0  0  0
   31.5552   -2.0125  -14.0397 O   0  0  0  0  0  0  0  0  0  0  0  0
   33.1669   -0.4981  -14.9651 C   0  0  0  0  0  0  0  0  0  0  0  0
   34.2672    0.2644  -14.5675 O   0  0  0  0  0  0  0  0  0  0  0  0
   35.4456   -1.6819  -14.0150 H   0  0  0  0  0  0  0  0  0  0  0  0
   31.4245   -2.4064  -14.9164 H   0  0  0  0  0  0  0  0  0  0  0  0
   35.0489   -0.3060  -14.5011 H   0  0  0  0  0  0  0  0  0  0  0  0
   34.8701   -4.3877  -15.6783 C   0  0  0  0  0  0  0  0  0  0  0  0
   34.2727   -5.5218  -15.1290 O   0  0  0  0  0  0  0  0  0  0  0  0
   34.1079   -5.3750  -14.1844 H   0  0  0  0  0  0  0  0  0  0  0  0
   25.3954   -2.8979  -25.2513 O   0  0  0  0  0  0  0  0  0  0  0  0
   26.2256   -2.2472  -26.2153 C   0  0  0  0  0  0  0  0  0  0  0  0
   25.4663   -1.7944  -27.3203 O   0  0  0  0  0  0  0  0  0  0  0  0
   24.8721   -2.9102  -27.9459 C   0  0  0  0  0  0  0  0  0  0  0  0
   25.9352   -3.7772  -28.6288 C   0  0  0  0  0  0  0  0  0  0  0  0
   26.6028   -3.0500  -29.6186 O   0  0  0  0  0  0  0  0  0  0  0  0
   26.9371   -4.2711  -27.5845 C   0  0  0  0  0  0  0  0  0  0  0  0
   26.3694   -5.2996  -26.8321 O   0  0  0  0  0  0  0  0  0  0  0  0
   27.3974   -3.1414  -26.6546 C   0  0  0  0  0  0  0  0  0  0  0  0
   28.3662   -2.3666  -27.2923 O   0  0  0  0  0  0  0  0  0  0  0  0
   27.0452   -2.2865  -29.2158 H   0  0  0  0  0  0  0  0  0  0  0  0
   25.5905   -4.9640  -26.3614 H   0  0  0  0  0  0  0  0  0  0  0  0
   27.9844   -1.9605  -28.0861 H   0  0  0  0  0  0  0  0  0  0  0  0
   23.8226   -2.4580  -28.9472 C   0  0  0  0  0  0  0  0  0  0  0  0
   22.7599   -1.8466  -28.2806 O   0  0  0  0  0  0  0  0  0  0  0  0
   22.3577   -2.4791  -27.6648 H   0  0  0  0  0  0  0  0  0  0  0  0
  1  2  2  0  0  0
  2  3  1  0  0  0
  3  4  2  0  0  0
  4 14  1  0  0  0
  4  5  1  0  0  0
 14 15  2  0  0  0
 15 16  1  0  0  0
 16 17  2  0  0  0
 17 18  1  0  0  0
 17 19  1  0  0  0
 19 22  1  0  0  0
 19 20  2  0  0  0
 23 22  1  0  0  0
 23 24  1  0  0  0
 24 25  1  0  0  0
 25 35  1  0  0  0
 25 26  1  0  0  0
 35 36  1  0  0  0
 26 27  1  0  0  0
 26 28  1  0  0  0
 28 29  1  0  0  0
 28 30  1  0  0  0
 30 31  1  0  0  0
 30 23  1  0  0  0
 20 14  1  0  0  0
  5  6  1  0  0  0
  6  7  2  0  0  0
  7  8  1  0  0  0
  8 38  1  0  0  0
  8  9  2  0  0  0
 39 38  1  0  0  0
 39 40  1  0  0  0
 40 41  1  0  0  0
 41 51  1  0  0  0
 41 42  1  0  0  0
 51 52  1  0  0  0
 42 43  1  0  0  0
 42 44  1  0  0  0
 44 45  1  0  0  0
 44 46  1  0  0  0
 46 47  1  0  0  0
 46 39  1  0  0  0
  9 10  1  0  0  0
 10 11  1  0  0  0
 10 12  2  0  0  0
 12  2  1  0  0  0
 12  6  1  0  0  0
 18 21  1  0  0  0
 36 37  1  0  0  0
 27 32  1  0  0  0
 29 33  1  0  0  0
 31 34  1  0  0  0
 52 53  1  0  0  0
 43 48  1  0  0  0
 45 49  1  0  0  0
 47 50  1  0  0  0
 11 13  1  0  0  0
M  END
>  <minimizedAffinity>
167.19445

>  <minimizedRMSD>
1.09341

$$$$
MCULE-8745617135 LN02124078 MolPort-027-720-872 PubChem-16007240


 85 92  0  0  0  0  0  0  0  0999 V2000
   25.6018   -2.1832  -23.0272 C   0  0  0  0  0  0  0  0  0  0  0  0
   25.7221   -0.8417  -23.7497 C   0  0  0  0  0  0  0  0  0  0  0  0
   26.9813   -0.8258  -24.6080 C   0  0  0  0  0  0  0  0  0  0  0  0
   28.2538   -0.9797  -23.7678 C   0  0  0  0  0  0  0  0  0  0  0  0
   28.1174   -2.2578  -22.8899 C   0  0  0  0  0  0  0  0  0  0  0  0
   29.4019   -2.6055  -22.1354 C   0  0  0  0  0  0  0  0  0  0  0  0
   30.5036   -2.9015  -23.1505 C   0  0  0  0  0  0  0  0  0  0  0  0
   30.7730   -1.7107  -24.0880 C   0  0  0  0  0  0  0  0  0  0  0  0
   31.4364   -0.5991  -23.2636 C   0  0  0  0  0  0  0  0  0  0  0  0
   29.4380   -1.2046  -24.7365 C   0  0  0  0  0  0  0  0  0  0  0  0
   29.6469   -0.0820  -25.7819 C   0  0  0  0  0  0  0  0  0  0  0  0
   30.6649   -0.5024  -26.8527 C   0  0  0  0  0  0  0  0  0  0  0  0
   31.9484   -0.9390  -26.1538 C   0  0  0  0  0  0  0  0  0  0  0  0
   33.1651   -1.2878  -27.0034 C   0  0  0  0  0  0  0  0  0  0  0  0
   33.9429   -2.3003  -26.1427 C   0  0  0  0  0  0  0  0  0  0  0  0
   33.1111   -2.5612  -24.8811 C   0  0  0  0  0  0  0  0  0  0  0  0
   31.7012   -2.1462  -25.2584 C   0  0  0  0  0  0  0  0  0  0  0  0
   31.0718   -3.3095  -26.0513 C   0  0  0  0  0  0  0  0  0  0  0  0
   26.8019   -2.4257  -22.0897 C   0  0  0  0  0  0  0  0  0  0  0  0
   26.7283   -3.8538  -21.5783 C   0  0  0  0  0  0  0  0  0  0  0  0
   26.7490   -1.4910  -20.8834 C   0  0  0  0  0  0  0  0  0  0  0  0
   34.0549   -0.0855  -27.4243 C   0  0  0  0  0  0  0  0  0  0  0  0
   34.6100   -0.3725  -28.6739 O   0  0  0  0  0  0  0  0  0  0  0  0
   33.8999   -0.5586  -29.3081 H   0  0  0  0  0  0  0  0  0  0  0  0
   33.1970    1.1760  -27.6259 C   0  0  0  0  0  0  0  0  0  0  0  0
   32.9719    2.0270  -26.3784 C   0  0  0  0  0  0  0  0  0  0  0  0
   32.2056    3.2678  -26.7133 C   0  0  0  0  0  0  0  0  0  0  0  0
   31.0519    3.5863  -26.1206 C   0  0  0  0  0  0  0  0  0  0  0  0
   30.4363    2.7205  -25.0655 C   0  0  0  0  0  0  0  0  0  0  0  0
   30.3702    4.8531  -26.5070 C   0  0  0  0  0  0  0  0  0  0  0  0
   35.2089    0.2051  -26.4406 C   0  0  0  0  0  0  0  0  0  0  0  0
   36.2588   -0.7187  -26.5273 O   0  0  0  0  0  0  0  0  0  0  0  0
   37.4273    0.0016  -26.2517 C   0  0  0  0  0  0  0  0  0  0  0  0
   38.5346   -0.7500  -26.6768 O   0  0  0  0  0  0  0  0  0  0  0  0
   39.6402    0.1196  -26.6797 C   0  0  0  0  0  0  0  0  0  0  0  0
   40.0308    0.4621  -25.2290 C   0  0  0  0  0  0  0  0  0  0  0  0
   41.0912    1.3710  -25.2216 O   0  0  0  0  0  0  0  0  0  0  0  0
   38.8356    1.0839  -24.5030 C   0  0  0  0  0  0  0  0  0  0  0  0
   39.0998    1.1579  -23.1346 O   0  0  0  0  0  0  0  0  0  0  0  0
   37.5514    0.2869  -24.7485 C   0  0  0  0  0  0  0  0  0  0  0  0
   36.4518    1.0279  -24.3089 O   0  0  0  0  0  0  0  0  0  0  0  0
   40.8215    2.1861  -25.6729 H   0  0  0  0  0  0  0  0  0  0  0  0
   39.2341    0.2641  -22.7825 H   0  0  0  0  0  0  0  0  0  0  0  0
   36.4145    1.8684  -24.7916 H   0  0  0  0  0  0  0  0  0  0  0  0
   40.7900   -0.5641  -27.4086 C   0  0  0  0  0  0  0  0  0  0  0  0
   40.4393   -0.8060  -28.7390 O   0  0  0  0  0  0  0  0  0  0  0  0
   39.6607   -1.3839  -28.7682 H   0  0  0  0  0  0  0  0  0  0  0  0
   28.4663    0.3013  -22.9834 C   0  0  0  0  0  0  0  0  0  0  0  0
   29.5747    0.6786  -22.6313 O   0  0  0  0  0  0  0  0  0  0  0  0
   24.3782   -2.2353  -22.3373 O   0  0  0  0  0  0  0  0  0  0  0  0
   22.8359   -3.3257  -23.8189 C   0  0  0  0  0  0  0  0  0  0  0  0
   23.7960   -3.4822  -22.6250 C   0  0  0  0  0  0  0  0  0  0  0  0
   24.8052   -4.4187  -22.9475 O   0  0  0  0  0  0  0  0  0  0  0  0
   24.1950   -5.6858  -23.0255 C   0  0  0  0  0  0  0  0  0  0  0  0
   23.3978   -5.8015  -24.3236 C   0  0  0  0  0  0  0  0  0  0  0  0
   24.2627   -5.6422  -25.4074 O   0  0  0  0  0  0  0  0  0  0  0  0
   22.3256   -4.7089  -24.3023 C   0  0  0  0  0  0  0  0  0  0  0  0
   24.7008   -4.7788  -25.3473 H   0  0  0  0  0  0  0  0  0  0  0  0
   21.8312   -2.3579  -23.5712 O   0  0  0  0  0  0  0  0  0  0  0  0
   18.0255   -3.2134  -22.5262 C   0  0  0  0  0  0  0  0  0  0  0  0
   19.2503   -2.3262  -22.4867 C   0  0  0  0  0  0  0  0  0  0  0  0
   20.3356   -3.0330  -21.9298 O   0  0  0  0  0  0  0  0  0  0  0  0
   21.5228   -2.3094  -22.1952 C   0  0  0  0  0  0  0  0  0  0  0  0
   21.4708   -0.8583  -21.6882 C   0  0  0  0  0  0  0  0  0  0  0  0
   22.5810   -0.6002  -20.8841 O   0  0  0  0  0  0  0  0  0  0  0  0
   20.1768   -0.5524  -20.9222 C   0  0  0  0  0  0  0  0  0  0  0  0
   20.2107   -1.1392  -19.6561 O   0  0  0  0  0  0  0  0  0  0  0  0
   18.9463   -1.0566  -21.6817 C   0  0  0  0  0  0  0  0  0  0  0  0
   18.4824   -0.0600  -22.5401 O   0  0  0  0  0  0  0  0  0  0  0  0
   22.5622   -1.1842  -20.1098 H   0  0  0  0  0  0  0  0  0  0  0  0
   20.2758   -2.1026  -19.7479 H   0  0  0  0  0  0  0  0  0  0  0  0
   19.1698    0.1520  -23.1909 H   0  0  0  0  0  0  0  0  0  0  0  0
   21.4409   -4.6886  -25.4042 O   0  0  0  0  0  0  0  0  0  0  0  0
   21.8985   -3.7634  -26.3536 C   0  0  0  0  0  0  0  0  0  0  0  0
   20.9334   -2.7519  -26.5314 O   0  0  0  0  0  0  0  0  0  0  0  0
   21.5489   -1.7398  -27.2893 C   0  0  0  0  0  0  0  0  0  0  0  0
   21.7497   -2.2185  -28.7284 C   0  0  0  0  0  0  0  0  0  0  0  0
   22.3659   -1.2118  -29.4695 O   0  0  0  0  0  0  0  0  0  0  0  0
   22.6268   -3.4732  -28.7329 C   0  0  0  0  0  0  0  0  0  0  0  0
   22.5986   -4.0587  -30.0028 O   0  0  0  0  0  0  0  0  0  0  0  0
   22.1432   -4.4802  -27.6866 C   0  0  0  0  0  0  0  0  0  0  0  0
   23.1052   -5.4782  -27.5194 O   0  0  0  0  0  0  0  0  0  0  0  0
   23.2267   -1.0008  -29.0752 H   0  0  0  0  0  0  0  0  0  0  0  0
   21.6886   -4.3143  -30.2209 H   0  0  0  0  0  0  0  0  0  0  0  0
   23.9367   -5.0788  -27.2194 H   0  0  0  0  0  0  0  0  0  0  0  0
 61 60  1  0  0  0
 61 62  1  0  0  0
 62 63  1  0  0  0
 63 59  1  0  0  0
 51 59  1  0  0  0
 51 52  1  0  0  0
 52 50  1  0  0  0
  1 50  1  0  0  0
  1  2  1  0  0  0
  2  3  1  0  0  0
  3  4  1  0  0  0
  4 48  1  0  0  0
 48 49  2  0  0  0
  4  5  1  0  0  0
  5  6  1  0  0  0
  6  7  1  0  0  0
  7  8  1  0  0  0
  8  9  1  0  0  0
  8 10  1  0  0  0
 10 11  1  0  0  0
 11 12  1  0  0  0
 13 12  1  0  0  0
 13 14  1  0  0  0
 14 15  1  0  0  0
 15 16  1  0  0  0
 16 17  1  0  0  0
 17 18  1  0  0  0
 14 22  1  0  0  0
 22 23  1  0  0  0
 22 25  1  0  0  0
 25 26  1  0  0  0
 26 27  1  0  0  0
 27 28  2  0  0  0
 28 29  1  0  0  0
 28 30  1  0  0  0
 22 31  1  0  0  0
 31 32  1  0  0  0
 33 32  1  0  0  0
 33 34  1  0  0  0
 34 35  1  0  0  0
 35 45  1  0  0  0
 45 46  1  0  0  0
 35 36  1  0  0  0
 36 37  1  0  0  0
 36 38  1  0  0  0
 38 39  1  0  0  0
 38 40  1  0  0  0
 40 41  1  0  0  0
  5 19  1  0  0  0
 19 20  1  0  0  0
 19 21  1  0  0  0
 52 53  1  0  0  0
 53 54  1  0  0  0
 54 55  1  0  0  0
 55 56  1  0  0  0
 55 57  1  0  0  0
 57 73  1  0  0  0
 74 73  1  0  0  0
 74 75  1  0  0  0
 75 76  1  0  0  0
 76 77  1  0  0  0
 77 78  1  0  0  0
 77 79  1  0  0  0
 79 80  1  0  0  0
 79 81  1  0  0  0
 81 82  1  0  0  0
 63 64  1  0  0  0
 64 65  1  0  0  0
 64 66  1  0  0  0
 66 67  1  0  0  0
 66 68  1  0  0  0
 68 69  1  0  0  0
 68 61  1  0  0  0
 57 51  1  0  0  0
 81 74  1  0  0  0
 19  1  1  0  0  0
 10  4  1  0  0  0
 17 13  1  0  0  0
 40 33  1  0  0  0
 17  8  1  0  0  0
 23 24  1  0  0  0
 46 47  1  0  0  0
 37 42  1  0  0  0
 39 43  1  0  0  0
 41 44  1  0  0  0
 56 58  1  0  0  0
 78 83  1  0  0  0
 80 84  1  0  0  0
 82 85  1  0  0  0
 65 70  1  0  0  0
 67 71  1  0  0  0
 69 72  1  0  0  0
M  END
>  <minimizedAffinity>
169.03478

>  <minimizedRMSD>
7.93909

$$$$
MCULE-7904224620 CHEMBL1971375 MolPort-044-193-710 NSC308876 NSC308877 PubChem-432447 PubChem-432449 PubChem-74420684


 78 84  0  0  0  0  0  0  0  0999 V2000
   29.9450   -2.2943  -21.1859 C   0  0  0  0  0  0  0  0  0  0  0  0
   29.7581   -2.8153  -19.7652 C   0  0  0  0  0  0  0  0  0  0  0  0
   29.8876   -4.3404  -19.6463 C   0  0  0  0  0  0  0  0  0  0  0  0
   31.2277   -4.8138  -20.2688 C   0  0  0  0  0  0  0  0  0  0  0  0
   31.3883   -6.3504  -20.2374 C   0  0  0  0  0  0  0  0  0  0  0  0
   30.6968   -7.0350  -19.0533 C   0  0  0  0  0  0  0  0  0  0  0  0
   30.5270   -6.1257  -17.8323 C   0  0  0  0  0  0  0  0  0  0  0  0
   29.8625   -4.7599  -18.1215 C   0  0  0  0  0  0  0  0  0  0  0  0
   30.6364   -3.7671  -17.2490 C   0  0  0  0  0  0  0  0  0  0  0  0
   31.9757   -4.3742  -16.8879 C   0  0  0  0  0  0  0  0  0  0  0  0
   31.8955   -5.8539  -17.2139 C   0  0  0  0  0  0  0  0  0  0  0  0
   28.4394   -4.7952  -17.5746 C   0  0  0  0  0  0  0  0  0  0  0  0
   29.4703   -7.5752  -19.4410 O   0  0  0  0  0  0  0  0  0  0  0  0
   31.6034   -4.2071  -21.6476 C   0  0  0  0  0  0  0  0  0  0  0  0
   31.3592   -2.6711  -21.6691 C   0  0  0  0  0  0  0  0  0  0  0  0
   31.8313   -1.9793  -22.9901 C   0  0  0  0  0  0  0  0  0  0  0  0
   33.1210   -2.6257  -23.5595 C   0  0  0  0  0  0  0  0  0  0  0  0
   33.9101   -3.3592  -22.4790 C   0  0  0  0  0  0  0  0  0  0  0  0
   33.0952   -4.5194  -21.8962 C   0  0  0  0  0  0  0  0  0  0  0  0
   32.8698   -3.4884  -24.6317 O   0  0  0  0  0  0  0  0  0  0  0  0
   32.1749   -0.5309  -22.6879 C   0  0  0  0  0  0  0  0  0  0  0  0
   30.7174   -1.9804  -24.0348 C   0  0  0  0  0  0  0  0  0  0  0  0
   30.7888   -4.8815  -22.7538 C   0  0  0  0  0  0  0  0  0  0  0  0
   28.7098   -4.9546  -20.4179 C   0  0  0  0  0  0  0  0  0  0  0  0
   28.8761   -6.8610  -19.7200 H   0  0  0  0  0  0  0  0  0  0  0  0
   32.3348   -4.2374  -24.3255 H   0  0  0  0  0  0  0  0  0  0  0  0
   32.2961   -6.7758  -16.0282 C   0  0  0  0  0  0  0  0  0  0  0  0
   31.8471   -8.2274  -16.2590 C   0  0  0  0  0  0  0  0  0  0  0  0
   33.8257   -6.7995  -15.9330 C   0  0  0  0  0  0  0  0  0  0  0  0
   34.5088   -7.3276  -17.1896 C   0  0  0  0  0  0  0  0  0  0  0  0
   35.8400   -7.8960  -16.8202 C   0  0  0  0  0  0  0  0  0  0  0  0
   36.9734   -7.5761  -17.4461 C   0  0  0  0  0  0  0  0  0  0  0  0
   38.2435   -8.2199  -17.0129 C   0  0  0  0  0  0  0  0  0  0  0  0
   37.0028   -6.6068  -18.5819 C   0  0  0  0  0  0  0  0  0  0  0  0
   31.8304   -6.2810  -14.7799 O   0  0  0  0  0  0  0  0  0  0  0  0
   30.4200   -6.2470  -14.7343 C   0  0  0  0  0  0  0  0  0  0  0  0
   29.8516   -7.6737  -14.6302 C   0  0  0  0  0  0  0  0  0  0  0  0
   29.1227   -7.9190  -13.3026 C   0  0  0  0  0  0  0  0  0  0  0  0
   29.9640   -7.3544  -12.1581 C   0  0  0  0  0  0  0  0  0  0  0  0
   30.4378   -5.9039  -12.4450 C   0  0  0  0  0  0  0  0  0  0  0  0
   29.9651   -5.4102  -13.6857 O   0  0  0  0  0  0  0  0  0  0  0  0
   29.2983   -7.4926  -10.9355 O   0  0  0  0  0  0  0  0  0  0  0  0
   27.8628   -7.3079  -13.3165 O   0  0  0  0  0  0  0  0  0  0  0  0
   29.0097   -7.9321  -15.7140 O   0  0  0  0  0  0  0  0  0  0  0  0
   28.4744   -6.9810  -10.9563 H   0  0  0  0  0  0  0  0  0  0  0  0
   27.9686   -6.3518  -13.4407 H   0  0  0  0  0  0  0  0  0  0  0  0
   28.2591   -7.3180  -15.6939 H   0  0  0  0  0  0  0  0  0  0  0  0
   30.1192   -4.9042  -11.3357 C   0  0  0  0  0  0  0  0  0  0  0  0
   28.7378   -4.8296  -11.1247 O   0  0  0  0  0  0  0  0  0  0  0  0
   28.3016   -4.5356  -11.9397 H   0  0  0  0  0  0  0  0  0  0  0  0
   29.7755   -0.9025  -21.1602 O   0  0  0  0  0  0  0  0  0  0  0  0
   28.1459    0.8408  -21.3675 C   0  0  0  0  0  0  0  0  0  0  0  0
   26.6681    1.1383  -21.0232 C   0  0  0  0  0  0  0  0  0  0  0  0
   25.6807    0.0254  -21.4140 C   0  0  0  0  0  0  0  0  0  0  0  0
   26.3547   -1.3256  -21.6938 C   0  0  0  0  0  0  0  0  0  0  0  0
   27.5447   -1.4507  -20.9621 O   0  0  0  0  0  0  0  0  0  0  0  0
   28.4777   -0.6380  -21.6334 C   0  0  0  0  0  0  0  0  0  0  0  0
   24.9405    0.4201  -22.5270 O   0  0  0  0  0  0  0  0  0  0  0  0
   26.5566    1.3897  -19.6565 O   0  0  0  0  0  0  0  0  0  0  0  0
   25.5356    0.5487  -23.2821 H   0  0  0  0  0  0  0  0  0  0  0  0
   26.8100    0.5959  -19.1600 H   0  0  0  0  0  0  0  0  0  0  0  0
   25.4136   -2.4779  -21.3736 C   0  0  0  0  0  0  0  0  0  0  0  0
   24.0973   -2.0233  -21.2626 O   0  0  0  0  0  0  0  0  0  0  0  0
   24.0394   -1.3723  -20.5459 H   0  0  0  0  0  0  0  0  0  0  0  0
   28.7179    1.7360  -22.2995 O   0  0  0  0  0  0  0  0  0  0  0  0
   25.8507    1.1146  -25.9127 C   0  0  0  0  0  0  0  0  0  0  0  0
   27.2502    0.9037  -25.3697 C   0  0  0  0  0  0  0  0  0  0  0  0
   28.3080    1.2466  -26.4272 C   0  0  0  0  0  0  0  0  0  0  0  0
   29.7092    1.0132  -25.8494 C   0  0  0  0  0  0  0  0  0  0  0  0
   29.8405    1.5706  -24.4273 C   0  0  0  0  0  0  0  0  0  0  0  0
   28.6062    1.1954  -23.5945 C   0  0  0  0  0  0  0  0  0  0  0  0
   27.4424    1.6841  -24.2157 O   0  0  0  0  0  0  0  0  0  0  0  0
   29.9973    2.9590  -24.4692 O   0  0  0  0  0  0  0  0  0  0  0  0
   29.9959   -0.3524  -25.8468 O   0  0  0  0  0  0  0  0  0  0  0  0
   28.1817    2.5774  -26.8356 O   0  0  0  0  0  0  0  0  0  0  0  0
   29.2187    3.3599  -24.8863 H   0  0  0  0  0  0  0  0  0  0  0  0
   29.3576   -0.8157  -25.2821 H   0  0  0  0  0  0  0  0  0  0  0  0
   28.3130    3.1633  -26.0738 H   0  0  0  0  0  0  0  0  0  0  0  0
 67 66  1  0  0  0
 67 68  1  0  0  0
 68 69  1  0  0  0
 68 75  1  0  0  0
 69 70  1  0  0  0
 69 74  1  0  0  0
 70 71  1  0  0  0
 70 73  1  0  0  0
 71 72  1  0  0  0
 71 65  1  0  0  0
 72 67  1  0  0  0
 52 65  1  0  0  0
 52 53  1  0  0  0
 53 54  1  0  0  0
 53 59  1  0  0  0
 54 55  1  0  0  0
 54 58  1  0  0  0
 55 56  1  0  0  0
 55 62  1  0  0  0
 56 57  1  0  0  0
 57 51  1  0  0  0
 57 52  1  0  0  0
  1 51  1  0  0  0
  1  2  1  0  0  0
  2  3  1  0  0  0
  3  4  1  0  0  0
  3 24  1  0  0  0
  4  5  1  0  0  0
  4 14  1  0  0  0
  5  6  1  0  0  0
  6 13  1  0  0  0
  7  6  1  0  0  0
  7  8  1  0  0  0
  8  9  1  0  0  0
  8 12  1  0  0  0
  8  3  1  0  0  0
  9 10  1  0  0  0
 11 10  1  0  0  0
 11 27  1  0  0  0
 11  7  1  0  0  0
 27 28  1  0  0  0
 27 29  1  0  0  0
 27 35  1  0  0  0
 29 30  1  0  0  0
 30 31  1  0  0  0
 31 32  2  0  0  0
 32 33  1  0  0  0
 32 34  1  0  0  0
 36 35  1  0  0  0
 36 37  1  0  0  0
 37 38  1  0  0  0
 37 44  1  0  0  0
 38 39  1  0  0  0
 38 43  1  0  0  0
 39 40  1  0  0  0
 39 42  1  0  0  0
 40 41  1  0  0  0
 40 48  1  0  0  0
 41 36  1  0  0  0
 48 49  1  0  0  0
 14 15  1  0  0  0
 14 23  1  0  0  0
 15 16  1  0  0  0
 15  1  1  0  0  0
 16 17  1  0  0  0
 16 21  1  0  0  0
 16 22  1  0  0  0
 17 18  1  0  0  0
 17 20  1  0  0  0
 18 19  1  0  0  0
 19 14  1  0  0  0
 62 63  1  0  0  0
 49 50  1  0  0  0
 42 45  1  0  0  0
 43 46  1  0  0  0
 44 47  1  0  0  0
 13 25  1  0  0  0
 20 26  1  0  0  0
 63 64  1  0  0  0
 58 60  1  0  0  0
 59 61  1  0  0  0
 73 76  1  0  0  0
 74 77  1  0  0  0
 75 78  1  0  0  0
M  END
>  <minimizedAffinity>
172.78814

>  <minimizedRMSD>
4.60530

$$$$
MCULE-5879511087 MolPort-005-945-566 PubChem-45360118


114124  0  0  0  0  0  0  0  0999 V2000
   23.3863   -0.1688  -25.9980 C   0  0  0  0  0  0  0  0  0  0  0  0
   24.1105   -1.3150  -25.2921 C   0  0  0  0  0  0  0  0  0  0  0  0
   23.5727   -2.6861  -25.7201 C   0  0  0  0  0  0  0  0  0  0  0  0
   22.9914   -2.6262  -27.0009 O   0  0  0  0  0  0  0  0  0  0  0  0
   21.7508   -1.9348  -26.8971 C   0  0  0  0  0  0  0  0  0  0  0  0
   21.9132   -0.5242  -26.3166 C   0  0  0  0  0  0  0  0  0  0  0  0
   21.3678    0.3927  -27.2042 O   0  0  0  0  0  0  0  0  0  0  0  0
   23.9972   -1.1708  -23.9004 O   0  0  0  0  0  0  0  0  0  0  0  0
   21.8476    0.3523  -28.0462 H   0  0  0  0  0  0  0  0  0  0  0  0
   23.0622   -1.2141  -23.6459 H   0  0  0  0  0  0  0  0  0  0  0  0
   24.6509   -3.7071  -25.6988 C   0  0  0  0  0  0  0  0  0  0  0  0
   24.5762   -4.6683  -24.8999 O   0  0  0  0  0  0  0  0  0  0  0  0
   25.6895   -3.6597  -26.6236 O   0  0  0  0  0  0  0  0  0  0  0  0
   25.7501   -2.9426  -27.2237 H   0  0  0  0  0  0  0  0  0  0  0  0
   20.7799   -2.6497  -26.1512 O   0  0  0  0  0  0  0  0  0  0  0  0
   20.6906   -3.9399  -26.7060 C   0  0  0  0  0  0  0  0  0  0  0  0
   21.3511   -4.9408  -25.7541 C   0  0  0  0  0  0  0  0  0  0  0  0
   20.5517   -5.0586  -24.4557 C   0  0  0  0  0  0  0  0  0  0  0  0
   19.1314   -5.5635  -24.7299 C   0  0  0  0  0  0  0  0  0  0  0  0
   18.4305   -4.6203  -25.7540 C   0  0  0  0  0  0  0  0  0  0  0  0
   19.2312   -4.3321  -27.0520 C   0  0  0  0  0  0  0  0  0  0  0  0
   19.2533   -5.5736  -27.9523 C   0  0  0  0  0  0  0  0  0  0  0  0
   16.9698   -5.0105  -25.9972 C   0  0  0  0  0  0  0  0  0  0  0  0
   16.1755   -5.0101  -24.6885 C   0  0  0  0  0  0  0  0  0  0  0  0
   16.7858   -5.9555  -23.6367 C   0  0  0  0  0  0  0  0  0  0  0  0
   18.2915   -5.5793  -23.4079 C   0  0  0  0  0  0  0  0  0  0  0  0
   18.4520   -4.2284  -22.6537 C   0  0  0  0  0  0  0  0  0  0  0  0
   17.3005   -3.7948  -21.7913 C   0  0  0  0  0  0  0  0  0  0  0  0
   16.1594   -4.4802  -21.6409 C   0  0  0  0  0  0  0  0  0  0  0  0
   15.9998   -5.8652  -22.2853 C   0  0  0  0  0  0  0  0  0  0  0  0
   14.5158   -6.2538  -22.5093 C   0  0  0  0  0  0  0  0  0  0  0  0
   13.5410   -5.1086  -22.2983 C   0  0  0  0  0  0  0  0  0  0  0  0
   13.6597   -4.5291  -20.8758 C   0  0  0  0  0  0  0  0  0  0  0  0
   15.1080   -3.9720  -20.6617 C   0  0  0  0  0  0  0  0  0  0  0  0
   15.1704   -2.4475  -20.4329 C   0  0  0  0  0  0  0  0  0  0  0  0
   14.2323   -2.0208  -19.2965 C   0  0  0  0  0  0  0  0  0  0  0  0
   12.8071   -2.5944  -19.4413 C   0  0  0  0  0  0  0  0  0  0  0  0
   12.6126   -3.4090  -20.7334 C   0  0  0  0  0  0  0  0  0  0  0  0
   14.1494   -0.5077  -19.3062 C   0  0  0  0  0  0  0  0  0  0  0  0
   14.8008   -2.4695  -17.9534 C   0  0  0  0  0  0  0  0  0  0  0  0
   12.2390   -5.5498  -22.5834 O   0  0  0  0  0  0  0  0  0  0  0  0
   16.5630   -6.8868  -21.2875 C   0  0  0  0  0  0  0  0  0  0  0  0
   16.6590   -7.3838  -24.1564 C   0  0  0  0  0  0  0  0  0  0  0  0
   19.2600   -6.9953  -25.2586 C   0  0  0  0  0  0  0  0  0  0  0  0
   12.0046   -6.2749  -21.9833 H   0  0  0  0  0  0  0  0  0  0  0  0
   18.5330   -3.1922  -27.8189 C   0  0  0  0  0  0  0  0  0  0  0  0
   19.2906   -2.7743  -28.9146 O   0  0  0  0  0  0  0  0  0  0  0  0
   20.1478   -2.4407  -28.6066 H   0  0  0  0  0  0  0  0  0  0  0  0
   13.3795   -5.6021  -19.8401 C   0  0  0  0  0  0  0  0  0  0  0  0
   12.7971   -6.6702  -20.1792 O   0  0  0  0  0  0  0  0  0  0  0  0
   13.7468   -5.4067  -18.5048 O   0  0  0  0  0  0  0  0  0  0  0  0
   13.1366   -6.1250  -17.4381 C   0  0  0  0  0  0  0  0  0  0  0  0
   12.2578   -5.1802  -16.5906 C   0  0  0  0  0  0  0  0  0  0  0  0
   11.6158   -5.9625  -15.4339 C   0  0  0  0  0  0  0  0  0  0  0  0
   12.6009   -6.9460  -14.7692 C   0  0  0  0  0  0  0  0  0  0  0  0
   13.4619   -7.6586  -15.8216 C   0  0  0  0  0  0  0  0  0  0  0  0
   14.1285   -6.7236  -16.6360 O   0  0  0  0  0  0  0  0  0  0  0  0
   13.4161   -6.2780  -13.8503 O   0  0  0  0  0  0  0  0  0  0  0  0
   10.5097   -6.6712  -15.8996 O   0  0  0  0  0  0  0  0  0  0  0  0
   13.0212   -4.1281  -16.0756 O   0  0  0  0  0  0  0  0  0  0  0  0
   13.9406   -5.6055  -14.3125 H   0  0  0  0  0  0  0  0  0  0  0  0
   10.7956   -7.3151  -16.5664 H   0  0  0  0  0  0  0  0  0  0  0  0
   13.7193   -4.4846  -15.5041 H   0  0  0  0  0  0  0  0  0  0  0  0
   24.1170    0.1667  -27.1492 O   0  0  0  0  0  0  0  0  0  0  0  0
   26.7717    0.8956  -26.2724 C   0  0  0  0  0  0  0  0  0  0  0  0
   26.1427    2.2295  -26.6199 C   0  0  0  0  0  0  0  0  0  0  0  0
   26.5147    2.7303  -28.0203 C   0  0  0  0  0  0  0  0  0  0  0  0
   25.7172    2.0105  -29.1083 C   0  0  0  0  0  0  0  0  0  0  0  0
   24.2307    1.9776  -28.7546 C   0  0  0  0  0  0  0  0  0  0  0  0
   23.9884    1.5537  -27.2940 C   0  0  0  0  0  0  0  0  0  0  0  0
   24.7547    2.2717  -26.3387 O   0  0  0  0  0  0  0  0  0  0  0  0
   23.6630    3.2326  -28.9926 O   0  0  0  0  0  0  0  0  0  0  0  0
   26.2936    4.1024  -28.0899 O   0  0  0  0  0  0  0  0  0  0  0  0
   24.0897    3.8934  -28.4250 H   0  0  0  0  0  0  0  0  0  0  0  0
   25.3541    4.2868  -27.9346 H   0  0  0  0  0  0  0  0  0  0  0  0
   26.1809    0.6980  -29.2812 O   0  0  0  0  0  0  0  0  0  0  0  0
   27.1599    0.7733  -30.2911 C   0  0  0  0  0  0  0  0  0  0  0  0
   27.0013   -0.3583  -31.3481 C   0  0  0  0  0  0  0  0  0  0  0  0
   28.3626   -0.9414  -31.7832 C   0  0  0  0  0  0  0  0  0  0  0  0
   29.2888   -1.2563  -30.5961 C   0  0  0  0  0  0  0  0  0  0  0  0
   28.8423   -0.4709  -29.3574 C   0  0  0  0  0  0  0  0  0  0  0  0
   28.4565    0.8388  -29.7180 O   0  0  0  0  0  0  0  0  0  0  0  0
   30.5991   -0.9237  -30.9397 O   0  0  0  0  0  0  0  0  0  0  0  0
   26.1639   -1.3783  -30.8831 O   0  0  0  0  0  0  0  0  0  0  0  0
   30.6484    0.0223  -31.1486 H   0  0  0  0  0  0  0  0  0  0  0  0
   26.5631   -1.7938  -30.1028 H   0  0  0  0  0  0  0  0  0  0  0  0
   29.8511   -0.4569  -28.2234 C   0  0  0  0  0  0  0  0  0  0  0  0
   31.0326    0.1683  -28.6278 O   0  0  0  0  0  0  0  0  0  0  0  0
   31.4154   -0.3165  -29.3757 H   0  0  0  0  0  0  0  0  0  0  0  0
   28.1527   -2.0787  -32.5877 O   0  0  0  0  0  0  0  0  0  0  0  0
   27.8620   -1.7015  -33.9254 C   0  0  0  0  0  0  0  0  0  0  0  0
   28.8065   -2.3684  -34.9466 C   0  0  0  0  0  0  0  0  0  0  0  0
   28.6717   -1.6379  -36.2793 C   0  0  0  0  0  0  0  0  0  0  0  0
   28.9574   -0.1345  -36.1425 C   0  0  0  0  0  0  0  0  0  0  0  0
   28.7194    0.3189  -34.6921 C   0  0  0  0  0  0  0  0  0  0  0  0
   27.5990   -0.3095  -34.1070 O   0  0  0  0  0  0  0  0  0  0  0  0
   28.6334    1.8196  -34.5228 C   0  0  0  0  0  0  0  0  0  0  0  0
   29.5224   -2.1958  -37.2311 O   0  0  0  0  0  0  0  0  0  0  0  0
   28.4754   -3.7175  -35.0922 O   0  0  0  0  0  0  0  0  0  0  0  0
   30.4426   -2.0932  -36.9419 H   0  0  0  0  0  0  0  0  0  0  0  0
   27.5591   -3.7940  -35.4014 H   0  0  0  0  0  0  0  0  0  0  0  0
   28.1431    0.5805  -37.0241 O   0  0  0  0  0  0  0  0  0  0  0  0
   27.3267   -0.3847  -37.6347 C   0  0  0  0  0  0  0  0  0  0  0  0
   27.7022   -0.6394  -39.1374 C   0  0  0  0  0  0  0  0  0  0  0  0
   26.4545   -0.8602  -39.9890 C   0  0  0  0  0  0  0  0  0  0  0  0
   25.3654    0.1839  -39.7163 C   0  0  0  0  0  0  0  0  0  0  0  0
   25.5005    0.8056  -38.3225 C   0  0  0  0  0  0  0  0  0  0  0  0
   25.9537   -0.1450  -37.3882 O   0  0  0  0  0  0  0  0  0  0  0  0
   25.4234    1.2079  -40.6705 O   0  0  0  0  0  0  0  0  0  0  0  0
   25.9341   -2.1318  -39.7716 O   0  0  0  0  0  0  0  0  0  0  0  0
   28.4241    0.4369  -39.6533 O   0  0  0  0  0  0  0  0  0  0  0  0
   26.2790    1.6605  -40.6075 H   0  0  0  0  0  0  0  0  0  0  0  0
   25.6597   -2.2148  -38.8449 H   0  0  0  0  0  0  0  0  0  0  0  0
   27.8770    1.2373  -39.6230 H   0  0  0  0  0  0  0  0  0  0  0  0
 66 65  1  0  0  0
 66 67  1  0  0  0
 67 68  1  0  0  0
 67 73  1  0  0  0
 68 69  1  0  0  0
 68 76  1  0  0  0
 69 70  1  0  0  0
 69 72  1  0  0  0
 70 71  1  0  0  0
 70 64  1  0  0  0
 71 66  1  0  0  0
  1 64  1  0  0  0
  1  2  1  0  0  0
  2  3  1  0  0  0
  2  8  1  0  0  0
  3  4  1  0  0  0
  3 11  1  0  0  0
  4  5  1  0  0  0
  5  6  1  0  0  0
  5 15  1  0  0  0
  6  7  1  0  0  0
  6  1  1  0  0  0
 16 15  1  0  0  0
 16 17  1  0  0  0
 17 18  1  0  0  0
 18 19  1  0  0  0
 19 20  1  0  0  0
 19 44  1  0  0  0
 20 21  1  0  0  0
 20 23  1  0  0  0
 21 22  1  0  0  0
 21 46  1  0  0  0
 21 16  1  0  0  0
 46 47  1  0  0  0
 23 24  1  0  0  0
 24 25  1  0  0  0
 25 26  1  0  0  0
 25 43  1  0  0  0
 26 27  1  0  0  0
 26 19  1  0  0  0
 27 28  1  0  0  0
 28 29  2  0  0  0
 29 30  1  0  0  0
 30 31  1  0  0  0
 30 42  1  0  0  0
 30 25  1  0  0  0
 31 32  1  0  0  0
 32 33  1  0  0  0
 32 41  1  0  0  0
 33 34  1  0  0  0
 33 49  1  0  0  0
 34 35  1  0  0  0
 34 29  1  0  0  0
 35 36  1  0  0  0
 36 37  1  0  0  0
 36 39  1  0  0  0
 36 40  1  0  0  0
 37 38  1  0  0  0
 38 33  1  0  0  0
 49 50  2  0  0  0
 49 51  1  0  0  0
 52 51  1  0  0  0
 52 53  1  0  0  0
 53 54  1  0  0  0
 53 60  1  0  0  0
 54 55  1  0  0  0
 54 59  1  0  0  0
 55 56  1  0  0  0
 55 58  1  0  0  0
 56 57  1  0  0  0
 57 52  1  0  0  0
 11 12  2  0  0  0
 11 13  1  0  0  0
 77 76  1  0  0  0
 77 78  1  0  0  0
 78 79  1  0  0  0
 78 84  1  0  0  0
 79 80  1  0  0  0
 79 90  1  0  0  0
 80 81  1  0  0  0
 80 83  1  0  0  0
 81 82  1  0  0  0
 81 87  1  0  0  0
 82 77  1  0  0  0
 87 88  1  0  0  0
 91 90  1  0  0  0
 91 92  1  0  0  0
 92 93  1  0  0  0
 92 99  1  0  0  0
 93 94  1  0  0  0
 93 98  1  0  0  0
 94 95  1  0  0  0
 94102  1  0  0  0
 95 96  1  0  0  0
 95 97  1  0  0  0
 96 91  1  0  0  0
103102  1  0  0  0
103104  1  0  0  0
104105  1  0  0  0
104111  1  0  0  0
105106  1  0  0  0
105110  1  0  0  0
106107  1  0  0  0
106109  1  0  0  0
107108  1  0  0  0
108103  1  0  0  0
  7  9  1  0  0  0
 47 48  1  0  0  0
 58 61  1  0  0  0
 59 62  1  0  0  0
 60 63  1  0  0  0
 41 45  1  0  0  0
 13 14  1  0  0  0
  8 10  1  0  0  0
 72 74  1  0  0  0
 88 89  1  0  0  0
 83 85  1  0  0  0
109112  1  0  0  0
110113  1  0  0  0
111114  1  0  0  0
 98100  1  0  0  0
 99101  1  0  0  0
 84 86  1  0  0  0
 73 75  1  0  0  0
M  END
>  <minimizedAffinity>
179.84057

>  <minimizedRMSD>
14.99091

$$$$
MCULE-5879511087 MolPort-005-945-566 PubChem-45360118


114124  0  0  0  0  0  0  0  0999 V2000
   24.1911   -2.4432  -25.6832 C   0  0  0  0  0  0  0  0  0  0  0  0
   23.0734   -3.4858  -25.6622 C   0  0  0  0  0  0  0  0  0  0  0  0
   23.6078   -4.9070  -25.8791 C   0  0  0  0  0  0  0  0  0  0  0  0
   24.9562   -5.0077  -25.4872 O   0  0  0  0  0  0  0  0  0  0  0  0
   25.7544   -4.3313  -26.4532 C   0  0  0  0  0  0  0  0  0  0  0  0
   25.3534   -2.8598  -26.6177 C   0  0  0  0  0  0  0  0  0  0  0  0
   26.4685   -2.0629  -26.3996 O   0  0  0  0  0  0  0  0  0  0  0  0
   22.1138   -3.1820  -26.6406 O   0  0  0  0  0  0  0  0  0  0  0  0
   26.7863   -2.1928  -25.4924 H   0  0  0  0  0  0  0  0  0  0  0  0
   22.5260   -3.2119  -27.5181 H   0  0  0  0  0  0  0  0  0  0  0  0
   22.7879   -5.8990  -25.1380 C   0  0  0  0  0  0  0  0  0  0  0  0
   21.8777   -6.5178  -25.7349 O   0  0  0  0  0  0  0  0  0  0  0  0
   23.0857   -6.2184  -23.8169 O   0  0  0  0  0  0  0  0  0  0  0  0
   23.7659   -5.7583  -23.3655 H   0  0  0  0  0  0  0  0  0  0  0  0
   25.7526   -4.9713  -27.7183 O   0  0  0  0  0  0  0  0  0  0  0  0
   26.2176   -6.2854  -27.5246 C   0  0  0  0  0  0  0  0  0  0  0  0
   25.0303   -7.1920  -27.1889 C   0  0  0  0  0  0  0  0  0  0  0  0
   24.0942   -7.3222  -28.3912 C   0  0  0  0  0  0  0  0  0  0  0  0
   24.8199   -7.9496  -29.5859 C   0  0  0  0  0  0  0  0  0  0  0  0
   26.0849   -7.1065  -29.9299 C   0  0  0  0  0  0  0  0  0  0  0  0
   27.0313   -6.8065  -28.7369 C   0  0  0  0  0  0  0  0  0  0  0  0
   27.7825   -8.0767  -28.3188 C   0  0  0  0  0  0  0  0  0  0  0  0
   26.8035   -7.6217  -31.1803 C   0  0  0  0  0  0  0  0  0  0  0  0
   25.8636   -7.6334  -32.3887 C   0  0  0  0  0  0  0  0  0  0  0  0
   24.6046   -8.4847  -32.1389 C   0  0  0  0  0  0  0  0  0  0  0  0
   23.8827   -7.9806  -30.8406 C   0  0  0  0  0  0  0  0  0  0  0  0
   23.2105   -6.5925  -31.0429 C   0  0  0  0  0  0  0  0  0  0  0  0
   22.8418   -6.2189  -32.4509 C   0  0  0  0  0  0  0  0  0  0  0  0
   23.0606   -6.9869  -33.5263 C   0  0  0  0  0  0  0  0  0  0  0  0
   23.6278   -8.4045  -33.3603 C   0  0  0  0  0  0  0  0  0  0  0  0
   24.3368   -8.9192  -34.6394 C   0  0  0  0  0  0  0  0  0  0  0  0
   24.5598   -7.8483  -35.6928 C   0  0  0  0  0  0  0  0  0  0  0  0
   23.2284   -7.2056  -36.1264 C   0  0  0  0  0  0  0  0  0  0  0  0
   22.5523   -6.5264  -34.8872 C   0  0  0  0  0  0  0  0  0  0  0  0
   22.4164   -4.9940  -35.0035 C   0  0  0  0  0  0  0  0  0  0  0  0
   21.7161   -4.5993  -36.3102 C   0  0  0  0  0  0  0  0  0  0  0  0
   22.3182   -5.2905  -37.5516 C   0  0  0  0  0  0  0  0  0  0  0  0
   23.5393   -6.1682  -37.2211 C   0  0  0  0  0  0  0  0  0  0  0  0
   21.8533   -3.0993  -36.4759 C   0  0  0  0  0  0  0  0  0  0  0  0
   20.2324   -4.9480  -36.2338 C   0  0  0  0  0  0  0  0  0  0  0  0
   25.2578   -8.4031  -36.7772 O   0  0  0  0  0  0  0  0  0  0  0  0
   22.4309   -9.3377  -33.1304 C   0  0  0  0  0  0  0  0  0  0  0  0
   25.0411   -9.9380  -31.9844 C   0  0  0  0  0  0  0  0  0  0  0  0
   25.1741   -9.3862  -29.1899 C   0  0  0  0  0  0  0  0  0  0  0  0
   24.7335   -9.1205  -37.1663 H   0  0  0  0  0  0  0  0  0  0  0  0
   28.0685   -5.7572  -29.1823 C   0  0  0  0  0  0  0  0  0  0  0  0
   28.8977   -5.3774  -28.1254 O   0  0  0  0  0  0  0  0  0  0  0  0
   28.3619   -4.9815  -27.4203 H   0  0  0  0  0  0  0  0  0  0  0  0
   22.2913   -8.2560  -36.6928 C   0  0  0  0  0  0  0  0  0  0  0  0
   22.7509   -9.3618  -37.0940 O   0  0  0  0  0  0  0  0  0  0  0  0
   20.9200   -7.9989  -36.7907 O   0  0  0  0  0  0  0  0  0  0  0  0
   20.0794   -8.7045  -37.6970 C   0  0  0  0  0  0  0  0  0  0  0  0
   19.8372   -7.8628  -38.9682 C   0  0  0  0  0  0  0  0  0  0  0  0
   18.9171   -8.6275  -39.9329 C   0  0  0  0  0  0  0  0  0  0  0  0
   17.7508   -9.3269  -39.2050 C   0  0  0  0  0  0  0  0  0  0  0  0
   18.2252   -9.9673  -37.8930 C   0  0  0  0  0  0  0  0  0  0  0  0
   18.8546   -9.0126  -37.0718 O   0  0  0  0  0  0  0  0  0  0  0  0
   16.7157   -8.4211  -38.9536 O   0  0  0  0  0  0  0  0  0  0  0  0
   19.6545   -9.5813  -40.6324 O   0  0  0  0  0  0  0  0  0  0  0  0
   19.2538   -6.6348  -38.6414 O   0  0  0  0  0  0  0  0  0  0  0  0
   17.0393   -7.7128  -38.3753 H   0  0  0  0  0  0  0  0  0  0  0  0
   20.0253  -10.2247  -40.0084 H   0  0  0  0  0  0  0  0  0  0  0  0
   18.3971   -6.7877  -38.2129 H   0  0  0  0  0  0  0  0  0  0  0  0
   24.6162   -2.2316  -24.3617 O   0  0  0  0  0  0  0  0  0  0  0  0
   22.3257   -2.8898  -22.7282 C   0  0  0  0  0  0  0  0  0  0  0  0
   22.3684   -1.3762  -22.6720 C   0  0  0  0  0  0  0  0  0  0  0  0
   23.0558   -0.8341  -21.4135 C   0  0  0  0  0  0  0  0  0  0  0  0
   24.5785   -0.9264  -21.5168 C   0  0  0  0  0  0  0  0  0  0  0  0
   25.0616   -0.3825  -22.8610 C   0  0  0  0  0  0  0  0  0  0  0  0
   24.2324   -0.9236  -24.0406 C   0  0  0  0  0  0  0  0  0  0  0  0
   22.8278   -0.7949  -23.8797 O   0  0  0  0  0  0  0  0  0  0  0  0
   25.0215    1.0146  -22.8446 O   0  0  0  0  0  0  0  0  0  0  0  0
   22.6664    0.4865  -21.2117 O   0  0  0  0  0  0  0  0  0  0  0  0
   24.1068    1.3103  -22.7150 H   0  0  0  0  0  0  0  0  0  0  0  0
   22.9415    1.0243  -21.9706 H   0  0  0  0  0  0  0  0  0  0  0  0
   25.0090   -2.2536  -21.3730 O   0  0  0  0  0  0  0  0  0  0  0  0
   26.0979   -2.2028  -20.4811 C   0  0  0  0  0  0  0  0  0  0  0  0
   27.3012   -3.0583  -20.9742 C   0  0  0  0  0  0  0  0  0  0  0  0
   27.9787   -3.8274  -19.8201 C   0  0  0  0  0  0  0  0  0  0  0  0
   26.9731   -4.5473  -18.9055 C   0  0  0  0  0  0  0  0  0  0  0  0
   25.5795   -3.9285  -19.0655 C   0  0  0  0  0  0  0  0  0  0  0  0
   25.6737   -2.5230  -19.1651 O   0  0  0  0  0  0  0  0  0  0  0  0
   27.4048   -4.4441  -17.5831 O   0  0  0  0  0  0  0  0  0  0  0  0
   26.9174   -3.9442  -21.9869 O   0  0  0  0  0  0  0  0  0  0  0  0
   27.4597   -3.5085  -17.3331 H   0  0  0  0  0  0  0  0  0  0  0  0
   26.2667   -4.5728  -21.6371 H   0  0  0  0  0  0  0  0  0  0  0  0
   24.5813   -4.3407  -17.9990 C   0  0  0  0  0  0  0  0  0  0  0  0
   24.9124   -3.7648  -16.7706 O   0  0  0  0  0  0  0  0  0  0  0  0
   25.7945   -4.0643  -16.5004 H   0  0  0  0  0  0  0  0  0  0  0  0
   28.9297   -4.7241  -20.3455 O   0  0  0  0  0  0  0  0  0  0  0  0
   30.1616   -4.6163  -19.6478 C   0  0  0  0  0  0  0  0  0  0  0  0
   30.4648   -5.8604  -18.7874 C   0  0  0  0  0  0  0  0  0  0  0  0
   31.5833   -5.5118  -17.8099 C   0  0  0  0  0  0  0  0  0  0  0  0
   31.2288   -4.2954  -16.9406 C   0  0  0  0  0  0  0  0  0  0  0  0
   30.1746   -3.4283  -17.6494 C   0  0  0  0  0  0  0  0  0  0  0  0
   30.3924   -3.3440  -19.0416 O   0  0  0  0  0  0  0  0  0  0  0  0
   30.0126   -2.0472  -17.0541 C   0  0  0  0  0  0  0  0  0  0  0  0
   31.8800   -6.6033  -16.9966 O   0  0  0  0  0  0  0  0  0  0  0  0
   30.8452   -6.9257  -19.6066 O   0  0  0  0  0  0  0  0  0  0  0  0
   31.1004   -6.8333  -16.4672 H   0  0  0  0  0  0  0  0  0  0  0  0
   31.6372   -6.6799  -20.1098 H   0  0  0  0  0  0  0  0  0  0  0  0
   32.3831   -3.5540  -16.6771 O   0  0  0  0  0  0  0  0  0  0  0  0
   32.6958   -3.8256  -15.3357 C   0  0  0  0  0  0  0  0  0  0  0  0
   31.8266   -2.9952  -14.3263 C   0  0  0  0  0  0  0  0  0  0  0  0
   32.6530   -2.5488  -13.1226 C   0  0  0  0  0  0  0  0  0  0  0  0
   34.0038   -1.9479  -13.5284 C   0  0  0  0  0  0  0  0  0  0  0  0
   34.4664   -2.4467  -14.9013 C   0  0  0  0  0  0  0  0  0  0  0  0
   34.0914   -3.7887  -15.1026 O   0  0  0  0  0  0  0  0  0  0  0  0
   33.9232   -0.5498  -13.5644 O   0  0  0  0  0  0  0  0  0  0  0  0
   32.8685   -3.6155  -12.2561 O   0  0  0  0  0  0  0  0  0  0  0  0
   31.2849   -1.8722  -14.9516 O   0  0  0  0  0  0  0  0  0  0  0  0
   33.2749   -0.2804  -14.2338 H   0  0  0  0  0  0  0  0  0  0  0  0
   33.3818   -4.3021  -12.7099 H   0  0  0  0  0  0  0  0  0  0  0  0
   32.0020   -1.2958  -15.2588 H   0  0  0  0  0  0  0  0  0  0  0  0
 66 65  1  0  0  0
 66 67  1  0  0  0
 67 68  1  0  0  0
 67 73  1  0  0  0
 68 69  1  0  0  0
 68 76  1  0  0  0
 69 70  1  0  0  0
 69 72  1  0  0  0
 70 71  1  0  0  0
 70 64  1  0  0  0
 71 66  1  0  0  0
  1 64  1  0  0  0
  1  2  1  0  0  0
  2  3  1  0  0  0
  2  8  1  0  0  0
  3  4  1  0  0  0
  3 11  1  0  0  0
  4  5  1  0  0  0
  5  6  1  0  0  0
  5 15  1  0  0  0
  6  7  1  0  0  0
  6  1  1  0  0  0
 16 15  1  0  0  0
 16 17  1  0  0  0
 17 18  1  0  0  0
 18 19  1  0  0  0
 19 20  1  0  0  0
 19 44  1  0  0  0
 20 21  1  0  0  0
 20 23  1  0  0  0
 21 22  1  0  0  0
 21 46  1  0  0  0
 21 16  1  0  0  0
 46 47  1  0  0  0
 23 24  1  0  0  0
 24 25  1  0  0  0
 25 26  1  0  0  0
 25 43  1  0  0  0
 26 27  1  0  0  0
 26 19  1  0  0  0
 27 28  1  0  0  0
 28 29  2  0  0  0
 29 30  1  0  0  0
 30 31  1  0  0  0
 30 42  1  0  0  0
 30 25  1  0  0  0
 31 32  1  0  0  0
 32 33  1  0  0  0
 32 41  1  0  0  0
 33 34  1  0  0  0
 33 49  1  0  0  0
 34 35  1  0  0  0
 34 29  1  0  0  0
 35 36  1  0  0  0
 36 37  1  0  0  0
 36 39  1  0  0  0
 36 40  1  0  0  0
 37 38  1  0  0  0
 38 33  1  0  0  0
 49 50  2  0  0  0
 49 51  1  0  0  0
 52 51  1  0  0  0
 52 53  1  0  0  0
 53 54  1  0  0  0
 53 60  1  0  0  0
 54 55  1  0  0  0
 54 59  1  0  0  0
 55 56  1  0  0  0
 55 58  1  0  0  0
 56 57  1  0  0  0
 57 52  1  0  0  0
 11 12  2  0  0  0
 11 13  1  0  0  0
 77 76  1  0  0  0
 77 78  1  0  0  0
 78 79  1  0  0  0
 78 84  1  0  0  0
 79 80  1  0  0  0
 79 90  1  0  0  0
 80 81  1  0  0  0
 80 83  1  0  0  0
 81 82  1  0  0  0
 81 87  1  0  0  0
 82 77  1  0  0  0
 87 88  1  0  0  0
 91 90  1  0  0  0
 91 92  1  0  0  0
 92 93  1  0  0  0
 92 99  1  0  0  0
 93 94  1  0  0  0
 93 98  1  0  0  0
 94 95  1  0  0  0
 94102  1  0  0  0
 95 96  1  0  0  0
 95 97  1  0  0  0
 96 91  1  0  0  0
103102  1  0  0  0
103104  1  0  0  0
104105  1  0  0  0
104111  1  0  0  0
105106  1  0  0  0
105110  1  0  0  0
106107  1  0  0  0
106109  1  0  0  0
107108  1  0  0  0
108103  1  0  0  0
  7  9  1  0  0  0
 47 48  1  0  0  0
 58 61  1  0  0  0
 59 62  1  0  0  0
 60 63  1  0  0  0
 41 45  1  0  0  0
 13 14  1  0  0  0
  8 10  1  0  0  0
 72 74  1  0  0  0
 88 89  1  0  0  0
 83 85  1  0  0  0
109112  1  0  0  0
110113  1  0  0  0
111114  1  0  0  0
 98100  1  0  0  0
 99101  1  0  0  0
 84 86  1  0  0  0
 73 75  1  0  0  0
M  END
>  <minimizedAffinity>
183.37962

>  <minimizedRMSD>
4.21734

$$$$
MCULE-5835629792 CHEMBL416615 LN04552873 MolPort-046-801-711 PubChem-5388496


 69 76  0  0  0  0  0  0  0  0999 V2000
   29.6292   -4.5835  -26.9780 C   0  0  0  0  0  0  0  0  0  0  0  0
   28.3589   -5.0586  -26.5924 C   0  0  0  0  0  0  0  0  0  0  0  0
   28.0306   -5.1691  -25.2387 C   0  0  0  0  0  0  0  0  0  0  0  0
   26.8231   -5.7842  -24.8485 C   0  0  0  0  0  0  0  0  0  0  0  0
   26.6224   -6.0665  -23.4688 C   0  0  0  0  0  0  0  0  0  0  0  0
   25.5751   -7.0051  -23.0009 C   0  0  0  0  0  0  0  0  0  0  0  0
   25.8045   -8.4092  -22.9649 C   0  0  0  0  0  0  0  0  0  0  0  0
   27.0379   -9.0493  -23.4935 C   0  0  0  0  0  0  0  0  0  0  0  0
   27.3838  -10.1878  -23.0729 O   0  0  0  0  0  0  0  0  0  0  0  0
   27.7818   -8.4232  -24.4944 O   0  0  0  0  0  0  0  0  0  0  0  0
   28.9623   -8.9727  -25.0626 C   0  0  0  0  0  0  0  0  0  0  0  0
   29.2822   -8.1978  -26.3396 C   0  0  0  0  0  0  0  0  0  0  0  0
   30.7142   -8.3803  -26.8628 C   0  0  0  0  0  0  0  0  0  0  0  0
   31.0326   -7.2933  -27.7302 O   0  0  0  0  0  0  0  0  0  0  0  0
   32.2116   -6.5537  -27.5956 C   0  0  0  0  0  0  0  0  0  0  0  0
   33.1084   -6.9411  -26.7968 O   0  0  0  0  0  0  0  0  0  0  0  0
   32.4415   -5.3412  -28.4167 C   0  0  0  0  0  0  0  0  0  0  0  0
   31.3986   -4.4544  -28.7993 C   0  0  0  0  0  0  0  0  0  0  0  0
   29.9998   -4.6672  -28.3495 C   0  0  0  0  0  0  0  0  0  0  0  0
   29.0463   -5.0870  -29.3012 C   0  0  0  0  0  0  0  0  0  0  0  0
   27.7645   -5.4797  -28.9008 C   0  0  0  0  0  0  0  0  0  0  0  0
   27.4321   -5.5088  -27.5457 C   0  0  0  0  0  0  0  0  0  0  0  0
   26.2604   -6.0028  -27.1570 O   0  0  0  0  0  0  0  0  0  0  0  0
   25.9241   -6.1601  -25.8788 C   0  0  0  0  0  0  0  0  0  0  0  0
   24.7949   -6.6501  -25.6131 O   0  0  0  0  0  0  0  0  0  0  0  0
   26.8366   -5.8913  -29.8516 O   0  0  0  0  0  0  0  0  0  0  0  0
   29.3821   -5.1493  -30.6508 O   0  0  0  0  0  0  0  0  0  0  0  0
   31.7042   -3.3208  -29.5798 C   0  0  0  0  0  0  0  0  0  0  0  0
   33.0240   -3.0666  -29.9701 C   0  0  0  0  0  0  0  0  0  0  0  0
   34.0487   -3.9308  -29.5770 C   0  0  0  0  0  0  0  0  0  0  0  0
   33.7562   -5.0537  -28.8047 C   0  0  0  0  0  0  0  0  0  0  0  0
   35.3625   -3.6783  -29.9513 O   0  0  0  0  0  0  0  0  0  0  0  0
   33.3174   -1.9483  -30.7426 O   0  0  0  0  0  0  0  0  0  0  0  0
   30.6989   -2.4343  -29.9558 O   0  0  0  0  0  0  0  0  0  0  0  0
   30.8423   -9.7182  -27.6021 C   0  0  0  0  0  0  0  0  0  0  0  0
   29.6919   -9.9424  -28.5824 C   0  0  0  0  0  0  0  0  0  0  0  0
   28.3788   -9.7073  -27.8370 C   0  0  0  0  0  0  0  0  0  0  0  0
   28.3054   -8.3853  -27.3489 O   0  0  0  0  0  0  0  0  0  0  0  0
   27.2971   -9.9555  -28.6822 O   0  0  0  0  0  0  0  0  0  0  0  0
   29.7940   -9.0735  -29.6739 O   0  0  0  0  0  0  0  0  0  0  0  0
   32.0762   -9.8185  -28.2483 O   0  0  0  0  0  0  0  0  0  0  0  0
   24.8216   -9.2405  -22.4113 C   0  0  0  0  0  0  0  0  0  0  0  0
   23.6302   -8.7152  -21.9130 C   0  0  0  0  0  0  0  0  0  0  0  0
   23.4008   -7.3380  -21.9567 C   0  0  0  0  0  0  0  0  0  0  0  0
   24.3708   -6.4827  -22.4912 C   0  0  0  0  0  0  0  0  0  0  0  0
   24.1373   -5.1108  -22.5119 O   0  0  0  0  0  0  0  0  0  0  0  0
   22.2104   -6.8164  -21.4622 O   0  0  0  0  0  0  0  0  0  0  0  0
   22.6755   -9.5691  -21.3753 O   0  0  0  0  0  0  0  0  0  0  0  0
   27.5453   -5.5848  -22.5183 C   0  0  0  0  0  0  0  0  0  0  0  0
   28.6960   -4.9029  -22.9258 C   0  0  0  0  0  0  0  0  0  0  0  0
   28.9647   -4.7352  -24.2848 C   0  0  0  0  0  0  0  0  0  0  0  0
   30.1114   -4.1888  -24.6740 O   0  0  0  0  0  0  0  0  0  0  0  0
   30.4726   -4.0864  -25.9504 C   0  0  0  0  0  0  0  0  0  0  0  0
   31.5711   -3.5313  -26.2162 O   0  0  0  0  0  0  0  0  0  0  0  0
   29.5974   -4.4337  -21.9762 O   0  0  0  0  0  0  0  0  0  0  0  0
   27.3361   -5.8133  -21.1609 O   0  0  0  0  0  0  0  0  0  0  0  0
   27.0585   -5.8723  -30.7617 H   0  0  0  0  0  0  0  0  0  0  0  0
   30.2369   -4.8895  -30.9334 H   0  0  0  0  0  0  0  0  0  0  0  0
   35.5653   -2.9251  -30.4704 H   0  0  0  0  0  0  0  0  0  0  0  0
   32.6308   -1.3681  -31.0068 H   0  0  0  0  0  0  0  0  0  0  0  0
   29.8121   -2.5955  -29.6995 H   0  0  0  0  0  0  0  0  0  0  0  0
   27.3292   -9.3458  -29.4359 H   0  0  0  0  0  0  0  0  0  0  0  0
   29.7639   -8.1560  -29.3606 H   0  0  0  0  0  0  0  0  0  0  0  0
   32.1460   -9.1237  -28.9216 H   0  0  0  0  0  0  0  0  0  0  0  0
   23.3347   -4.7669  -22.1718 H   0  0  0  0  0  0  0  0  0  0  0  0
   21.5609   -7.3892  -21.1043 H   0  0  0  0  0  0  0  0  0  0  0  0
   22.8345  -10.4921  -21.3485 H   0  0  0  0  0  0  0  0  0  0  0  0
   29.4173   -4.5460  -21.0635 H   0  0  0  0  0  0  0  0  0  0  0  0
   26.5689   -6.2691  -20.8754 H   0  0  0  0  0  0  0  0  0  0  0  0
  1  2  2  0  0  0
  2  3  1  0  0  0
  3  4  1  0  0  0
  4  5  2  0  0  0
  5  6  1  0  0  0
  6  7  2  0  0  0
  7  8  1  0  0  0
  8  9  2  0  0  0
  8 10  1  0  0  0
 10 11  1  0  0  0
 11 12  1  0  0  0
 12 13  1  0  0  0
 13 14  1  0  0  0
 14 15  1  0  0  0
 15 16  2  0  0  0
 15 17  1  0  0  0
 17 18  2  0  0  0
 18 19  1  0  0  0
 19 20  2  0  0  0
 20 21  1  0  0  0
 21 22  2  0  0  0
 22 23  1  0  0  0
 23 24  1  0  0  0
 24 25  2  0  0  0
 21 26  1  0  0  0
 20 27  1  0  0  0
 18 28  1  0  0  0
 28 29  2  0  0  0
 29 30  1  0  0  0
 30 31  2  0  0  0
 30 32  1  0  0  0
 29 33  1  0  0  0
 28 34  1  0  0  0
 13 35  1  0  0  0
 35 36  1  0  0  0
 36 37  1  0  0  0
 37 38  1  0  0  0
 37 39  1  0  0  0
 36 40  1  0  0  0
 35 41  1  0  0  0
  7 42  1  0  0  0
 42 43  2  0  0  0
 43 44  1  0  0  0
 44 45  2  0  0  0
 45 46  1  0  0  0
 44 47  1  0  0  0
 43 48  1  0  0  0
  5 49  1  0  0  0
 49 50  2  0  0  0
 50 51  1  0  0  0
 51 52  1  0  0  0
 52 53  1  0  0  0
 53 54  2  0  0  0
 50 55  1  0  0  0
 49 56  1  0  0  0
 19  1  1  0  0  0
 53  1  1  0  0  0
 22  2  1  0  0  0
 51  3  2  0  0  0
 24  4  1  0  0  0
 45  6  1  0  0  0
 38 12  1  0  0  0
 31 17  1  0  0  0
 26 57  1  0  0  0
 27 58  1  0  0  0
 32 59  1  0  0  0
 33 60  1  0  0  0
 34 61  1  0  0  0
 39 62  1  0  0  0
 40 63  1  0  0  0
 41 64  1  0  0  0
 46 65  1  0  0  0
 47 66  1  0  0  0
 48 67  1  0  0  0
 55 68  1  0  0  0
 56 69  1  0  0  0
M  END
>  <minimizedAffinity>
185.65193

>  <minimizedRMSD>
7.85201

$$$$
MCULE-5023494686 MolPort-047-605-010


 58 62  0  0  0  0  0  0  0  0999 V2000
   29.6397   -3.7576  -16.4081 C   0  0  0  0  0  0  0  0  0  0  0  0
   28.9118   -4.9024  -16.0473 C   0  0  0  0  0  0  0  0  0  0  0  0
   29.5208   -6.1608  -16.0026 C   0  0  0  0  0  0  0  0  0  0  0  0
   30.8849   -6.2677  -16.2897 C   0  0  0  0  0  0  0  0  0  0  0  0
   31.6301   -5.1397  -16.6669 C   0  0  0  0  0  0  0  0  0  0  0  0
   31.0084   -3.8828  -16.7511 C   0  0  0  0  0  0  0  0  0  0  0  0
   31.7940   -2.7914  -17.1624 O   0  0  0  0  0  0  0  0  0  0  0  0
   31.2764   -1.5669  -17.6686 C   0  0  0  0  0  0  0  0  0  0  0  0
   30.8790   -1.7386  -19.1237 C   0  0  0  0  0  0  0  0  0  0  0  0
   30.4639   -0.4023  -19.7091 C   0  0  0  0  0  0  0  0  0  0  0  0
   29.0801   -0.1118  -19.3723 N   0  0  0  0  0  0  0  0  0  0  0  0
   28.1008    0.1350  -20.3824 C   0  0  0  0  0  0  0  0  0  0  0  0
   28.4066    0.0629  -21.6069 O   0  0  0  0  0  0  0  0  0  0  0  0
   26.6996    0.4636  -19.9885 C   0  0  0  0  0  0  0  0  0  0  0  0
   25.8671   -0.7346  -20.0182 N   0  0  0  0  0  0  0  0  0  0  0  0
   25.8576   -1.5685  -18.8259 C   0  0  0  0  0  0  0  0  0  0  0  0
   24.5118   -1.4860  -18.1339 C   0  0  0  0  0  0  0  0  0  0  0  0
   24.5136   -2.4005  -17.0078 N   0  0  0  0  0  0  0  0  0  0  0  0
   23.5417   -3.4354  -16.8590 C   0  0  0  0  0  0  0  0  0  0  0  0
   22.4890   -3.4277  -17.5510 O   0  0  0  0  0  0  0  0  0  0  0  0
   23.7754   -4.5446  -15.8854 C   0  0  0  0  0  0  0  0  0  0  0  0
   25.1152   -5.0850  -16.0567 N   0  0  0  0  0  0  0  0  0  0  0  0
   25.3516   -6.3713  -16.6191 C   0  0  0  0  0  0  0  0  0  0  0  0
   24.4062   -7.1961  -16.7491 O   0  0  0  0  0  0  0  0  0  0  0  0
   26.7413   -6.7305  -17.0327 C   0  0  0  0  0  0  0  0  0  0  0  0
   26.7498   -7.4663  -18.3621 C   0  0  0  0  0  0  0  0  0  0  0  0
   27.3836   -7.5393  -16.0103 N   0  0  0  0  0  0  0  0  0  0  0  0
   28.7511   -7.3623  -15.6241 C   0  0  0  0  0  0  0  0  0  0  0  0
   29.3159   -8.2687  -14.9533 O   0  0  0  0  0  0  0  0  0  0  0  0
   25.3214   -1.2413  -21.2520 C   0  0  0  0  0  0  0  0  0  0  0  0
   25.0552   -2.4705  -21.3501 O   0  0  0  0  0  0  0  0  0  0  0  0
   28.8115   -0.0845  -18.4256 H   0  0  0  0  0  0  0  0  0  0  0  0
   25.2115   -2.3037  -16.3201 H   0  0  0  0  0  0  0  0  0  0  0  0
   25.8859   -4.5417  -15.7736 H   0  0  0  0  0  0  0  0  0  0  0  0
   26.8553   -8.2397  -15.5636 H   0  0  0  0  0  0  0  0  0  0  0  0
   25.0729   -0.3647  -22.4155 C   0  0  0  0  0  0  0  0  0  0  0  0
   25.1122   -0.8979  -23.7111 C   0  0  0  0  0  0  0  0  0  0  0  0
   24.8709   -0.0822  -24.8200 C   0  0  0  0  0  0  0  0  0  0  0  0
   24.5768    1.2758  -24.6477 C   0  0  0  0  0  0  0  0  0  0  0  0
   24.5215    1.8071  -23.3533 C   0  0  0  0  0  0  0  0  0  0  0  0
   24.7671    0.9915  -22.2452 C   0  0  0  0  0  0  0  0  0  0  0  0
   24.3301    2.1336  -25.8165 C   0  0  0  0  0  0  0  0  0  0  0  0
   23.1460    2.2257  -26.4542 N   0  0  0  0  0  0  0  0  0  0  0  0
   23.3858    3.0854  -27.4273 N   0  0  0  0  0  0  0  0  0  0  0  0
   22.4006    3.5048  -28.4065 C   0  0  0  0  0  0  0  0  0  0  0  0
   24.6373    3.5047  -27.4035 N   0  0  0  0  0  0  0  0  0  0  0  0
   25.2628    2.9206  -26.3945 N   0  0  0  0  0  0  0  0  0  0  0  0
   28.9870   -1.6552  -15.2742 C   0  0  0  0  0  0  0  0  0  0  0  0
   29.0211   -2.5018  -16.4117 O   0  0  0  0  0  0  0  0  0  0  0  0
   32.9905   -5.2466  -16.9748 O   0  0  0  0  0  0  0  0  0  0  0  0
   33.4950   -6.1913  -17.9038 C   0  0  0  0  0  0  0  0  0  0  0  0
   23.5071   -4.1258  -14.4394 C   0  0  0  0  0  0  0  0  0  0  0  0
   23.4545   -2.6425  -14.2365 C   0  0  0  0  0  0  0  0  0  0  0  0
   22.2916   -1.9355  -14.5638 C   0  0  0  0  0  0  0  0  0  0  0  0
   22.2181   -0.5581  -14.3300 C   0  0  0  0  0  0  0  0  0  0  0  0
   23.3009    0.1123  -13.7542 C   0  0  0  0  0  0  0  0  0  0  0  0
   24.4581   -0.5940  -13.4116 C   0  0  0  0  0  0  0  0  0  0  0  0
   24.5328   -1.9711  -13.6493 C   0  0  0  0  0  0  0  0  0  0  0  0
 48 49  1  0  0  0
 49  1  1  0  0  0
  1  2  2  0  0  0
  2  3  1  0  0  0
  3  4  2  0  0  0
  4  5  1  0  0  0
  5 50  1  0  0  0
 50 51  1  0  0  0
  5  6  2  0  0  0
  6  7  1  0  0  0
  7  8  1  0  0  0
  8  9  1  0  0  0
  9 10  1  0  0  0
 10 11  1  0  0  0
 11 12  1  0  0  0
 12 13  2  0  0  0
 12 14  1  0  0  0
 14 15  1  0  0  0
 15 16  1  0  0  0
 16 17  1  0  0  0
 17 18  1  0  0  0
 18 19  1  0  0  0
 19 20  2  0  0  0
 19 21  1  0  0  0
 21 52  1  0  0  0
 52 53  1  0  0  0
 53 54  2  0  0  0
 54 55  1  0  0  0
 55 56  2  0  0  0
 56 57  1  0  0  0
 57 58  2  0  0  0
 21 22  1  0  0  0
 22 23  1  0  0  0
 23 24  2  0  0  0
 23 25  1  0  0  0
 25 26  1  0  0  0
 25 27  1  0  0  0
 27 28  1  0  0  0
 28 29  2  0  0  0
 15 30  1  0  0  0
 30 31  2  0  0  0
 30 36  1  0  0  0
 36 37  2  0  0  0
 37 38  1  0  0  0
 38 39  2  0  0  0
 39 40  1  0  0  0
 40 41  2  0  0  0
 39 42  1  0  0  0
 42 43  2  0  0  0
 43 44  1  0  0  0
 44 45  1  0  0  0
 44 46  1  0  0  0
 46 47  2  0  0  0
  6  1  1  0  0  0
 58 53  1  0  0  0
 41 36  1  0  0  0
 47 42  1  0  0  0
 28  3  1  0  0  0
 11 32  1  0  0  0
 18 33  1  0  0  0
 22 34  1  0  0  0
 27 35  1  0  0  0
M  END
>  <minimizedAffinity>
189.16389

>  <minimizedRMSD>
3.62190

$$$$
MCULE-3148851722 ChemDiv-N039-0006 MolPort-007-980-829 PubChem-5351997


 63 68  0  0  0  0  0  0  0  0999 V2000
   28.2411   -3.5849  -20.6359 C   0  0  0  0  0  0  0  0  0  0  0  0
   29.2303   -3.0832  -21.5110 C   0  0  0  0  0  0  0  0  0  0  0  0
   28.8741   -2.4870  -22.6455 O   0  0  0  0  0  0  0  0  0  0  0  0
   27.6125   -2.2986  -23.0066 C   0  0  0  0  0  0  0  0  0  0  0  0
   26.5533   -2.7295  -22.1768 C   0  0  0  0  0  0  0  0  0  0  0  0
   25.2208   -2.5051  -22.5974 C   0  0  0  0  0  0  0  0  0  0  0  0
   24.1348   -2.9083  -21.8276 O   0  0  0  0  0  0  0  0  0  0  0  0
   24.9711   -1.8640  -23.8140 C   0  0  0  0  0  0  0  0  0  0  0  0
   26.0276   -1.4339  -24.6274 C   0  0  0  0  0  0  0  0  0  0  0  0
   27.3426   -1.6571  -24.2180 C   0  0  0  0  0  0  0  0  0  0  0  0
   26.8842   -3.3727  -20.9672 C   0  0  0  0  0  0  0  0  0  0  0  0
   25.9751   -3.7449  -20.1766 O   0  0  0  0  0  0  0  0  0  0  0  0
   24.2760   -3.3401  -21.0081 H   0  0  0  0  0  0  0  0  0  0  0  0
   30.6754   -3.2085  -21.2266 C   0  0  0  0  0  0  0  0  0  0  0  0
   31.5772   -3.3616  -22.2898 C   0  0  0  0  0  0  0  0  0  0  0  0
   32.9505   -3.4532  -22.0466 C   0  0  0  0  0  0  0  0  0  0  0  0
   33.4347   -3.3793  -20.7383 C   0  0  0  0  0  0  0  0  0  0  0  0
   32.5463   -3.2041  -19.6755 C   0  0  0  0  0  0  0  0  0  0  0  0
   31.1733   -3.1148  -19.9194 C   0  0  0  0  0  0  0  0  0  0  0  0
   34.7963   -3.4836  -20.4943 O   0  0  0  0  0  0  0  0  0  0  0  0
   35.3924   -3.6011  -21.2076 H   0  0  0  0  0  0  0  0  0  0  0  0
   28.6306   -4.2890  -19.4808 O   0  0  0  0  0  0  0  0  0  0  0  0
   27.8091   -5.2524  -18.8203 C   0  0  0  0  0  0  0  0  0  0  0  0
   28.1971   -5.4496  -17.4671 O   0  0  0  0  0  0  0  0  0  0  0  0
   29.4113   -6.1736  -17.3521 C   0  0  0  0  0  0  0  0  0  0  0  0
   29.3696   -7.5329  -18.0713 C   0  0  0  0  0  0  0  0  0  0  0  0
   28.9564   -7.3909  -19.5323 C   0  0  0  0  0  0  0  0  0  0  0  0
   29.9782   -6.8059  -20.2862 O   0  0  0  0  0  0  0  0  0  0  0  0
   27.6872   -6.5527  -19.6296 C   0  0  0  0  0  0  0  0  0  0  0  0
   26.5939   -7.2904  -19.1738 O   0  0  0  0  0  0  0  0  0  0  0  0
   30.5794   -8.2208  -17.9556 O   0  0  0  0  0  0  0  0  0  0  0  0
   30.1654   -5.9181  -19.9431 H   0  0  0  0  0  0  0  0  0  0  0  0
   26.7277   -7.5247  -18.2421 H   0  0  0  0  0  0  0  0  0  0  0  0
   31.2820   -7.7152  -18.3932 H   0  0  0  0  0  0  0  0  0  0  0  0
   30.6337   -5.3115  -17.6595 C   0  0  0  0  0  0  0  0  0  0  0  0
   31.7694   -5.8480  -17.0497 O   0  0  0  0  0  0  0  0  0  0  0  0
   32.2763   -4.8095  -16.2575 C   0  0  0  0  0  0  0  0  0  0  0  0
   32.1611   -5.1113  -14.8797 O   0  0  0  0  0  0  0  0  0  0  0  0
   32.9342   -6.2546  -14.5847 C   0  0  0  0  0  0  0  0  0  0  0  0
   32.6419   -6.6900  -13.1610 C   0  0  0  0  0  0  0  0  0  0  0  0
   34.4249   -5.9434  -14.7536 C   0  0  0  0  0  0  0  0  0  0  0  0
   34.7042   -5.5226  -16.1984 C   0  0  0  0  0  0  0  0  0  0  0  0
   34.6306   -6.6243  -17.0547 O   0  0  0  0  0  0  0  0  0  0  0  0
   33.7147   -4.4499  -16.6542 C   0  0  0  0  0  0  0  0  0  0  0  0
   34.0615   -3.2179  -16.0995 O   0  0  0  0  0  0  0  0  0  0  0  0
   35.2042   -7.0543  -14.4197 O   0  0  0  0  0  0  0  0  0  0  0  0
   33.7356   -6.9971  -17.0258 H   0  0  0  0  0  0  0  0  0  0  0  0
   34.0184   -3.2752  -15.1322 H   0  0  0  0  0  0  0  0  0  0  0  0
   34.9835   -7.7929  -15.0085 H   0  0  0  0  0  0  0  0  0  0  0  0
   25.8007   -0.7818  -25.8431 O   0  0  0  0  0  0  0  0  0  0  0  0
   24.4950   -0.4817  -26.3413 C   0  0  0  0  0  0  0  0  0  0  0  0
   23.8284    0.4608  -25.5202 O   0  0  0  0  0  0  0  0  0  0  0  0
   24.5609    1.6685  -25.5207 C   0  0  0  0  0  0  0  0  0  0  0  0
   24.0142    2.6039  -24.4598 C   0  0  0  0  0  0  0  0  0  0  0  0
   24.5273    2.3289  -26.9020 C   0  0  0  0  0  0  0  0  0  0  0  0
   25.1769    1.3738  -27.9009 C   0  0  0  0  0  0  0  0  0  0  0  0
   25.0533    1.8729  -29.1981 O   0  0  0  0  0  0  0  0  0  0  0  0
   24.5452   -0.0148  -27.8032 C   0  0  0  0  0  0  0  0  0  0  0  0
   25.2631   -0.9272  -28.5756 O   0  0  0  0  0  0  0  0  0  0  0  0
   23.2104    2.6079  -27.2797 O   0  0  0  0  0  0  0  0  0  0  0  0
   24.1138    1.9537  -29.4253 H   0  0  0  0  0  0  0  0  0  0  0  0
   26.1731   -0.9855  -28.2448 H   0  0  0  0  0  0  0  0  0  0  0  0
   22.7010    1.7829  -27.3098 H   0  0  0  0  0  0  0  0  0  0  0  0
  1 22  1  0  0  0
 22 23  1  0  0  0
 23 24  1  0  0  0
 24 25  1  0  0  0
 25 35  1  0  0  0
 35 36  1  0  0  0
 36 37  1  0  0  0
 37 38  1  0  0  0
 38 39  1  0  0  0
 39 40  1  0  0  0
 39 41  1  0  0  0
 41 42  1  0  0  0
 42 43  1  0  0  0
 42 44  1  0  0  0
 44 45  1  0  0  0
 41 46  1  0  0  0
 25 26  1  0  0  0
 26 27  1  0  0  0
 27 28  1  0  0  0
 27 29  1  0  0  0
 29 30  1  0  0  0
 26 31  1  0  0  0
  1  2  2  0  0  0
  2 14  1  0  0  0
 14 15  2  0  0  0
 15 16  1  0  0  0
 16 17  2  0  0  0
 17 18  1  0  0  0
 18 19  2  0  0  0
 17 20  1  0  0  0
  2  3  1  0  0  0
  3  4  1  0  0  0
  4  5  2  0  0  0
  5  6  1  0  0  0
  6  7  1  0  0  0
  6  8  2  0  0  0
  8  9  1  0  0  0
  9 50  1  0  0  0
 50 51  1  0  0  0
 51 52  1  0  0  0
 52 53  1  0  0  0
 53 54  1  0  0  0
 53 55  1  0  0  0
 55 56  1  0  0  0
 56 57  1  0  0  0
 56 58  1  0  0  0
 58 59  1  0  0  0
 55 60  1  0  0  0
  9 10  2  0  0  0
  5 11  1  0  0  0
 11 12  2  0  0  0
 11  1  1  0  0  0
 29 23  1  0  0  0
 19 14  1  0  0  0
 10  4  1  0  0  0
 44 37  1  0  0  0
 58 51  1  0  0  0
 43 47  1  0  0  0
 45 48  1  0  0  0
 46 49  1  0  0  0
 28 32  1  0  0  0
 30 33  1  0  0  0
 31 34  1  0  0  0
 20 21  1  0  0  0
  7 13  1  0  0  0
 57 61  1  0  0  0
 59 62  1  0  0  0
 60 63  1  0  0  0
M  END
>  <minimizedAffinity>
191.62146

>  <minimizedRMSD>
0.65245

$$$$
MCULE-5835629792 CHEMBL416615 LN04552873 MolPort-046-801-711 PubChem-5388496


 69 76  0  0  0  0  0  0  0  0999 V2000
   29.6578   -6.1787  -21.1984 C   0  0  0  0  0  0  0  0  0  0  0  0
   29.3996   -5.9755  -22.5695 C   0  0  0  0  0  0  0  0  0  0  0  0
   28.6243   -6.8936  -23.2827 C   0  0  0  0  0  0  0  0  0  0  0  0
   28.4909   -6.7754  -24.6816 C   0  0  0  0  0  0  0  0  0  0  0  0
   27.8736   -7.8402  -25.3948 C   0  0  0  0  0  0  0  0  0  0  0  0
   27.9960   -7.9786  -26.8654 C   0  0  0  0  0  0  0  0  0  0  0  0
   29.1247   -8.6130  -27.4560 C   0  0  0  0  0  0  0  0  0  0  0  0
   30.3048   -9.0716  -26.6766 C   0  0  0  0  0  0  0  0  0  0  0  0
   31.0531   -9.9743  -27.1436 O   0  0  0  0  0  0  0  0  0  0  0  0
   30.6217   -8.4677  -25.4593 O   0  0  0  0  0  0  0  0  0  0  0  0
   31.7376   -8.8363  -24.6609 C   0  0  0  0  0  0  0  0  0  0  0  0
   31.9586   -7.7435  -23.6167 C   0  0  0  0  0  0  0  0  0  0  0  0
   32.8489   -8.1522  -22.4343 C   0  0  0  0  0  0  0  0  0  0  0  0
   32.6021   -7.2690  -21.3415 O   0  0  0  0  0  0  0  0  0  0  0  0
   32.3384   -7.7371  -20.0505 C   0  0  0  0  0  0  0  0  0  0  0  0
   32.4771   -8.9632  -19.7863 O   0  0  0  0  0  0  0  0  0  0  0  0
   31.9413   -6.7999  -18.9729 C   0  0  0  0  0  0  0  0  0  0  0  0
   31.1412   -5.6477  -19.2028 C   0  0  0  0  0  0  0  0  0  0  0  0
   30.6052   -5.3362  -20.5519 C   0  0  0  0  0  0  0  0  0  0  0  0
   31.1518   -4.2408  -21.2537 C   0  0  0  0  0  0  0  0  0  0  0  0
   30.8186   -4.0146  -22.5935 C   0  0  0  0  0  0  0  0  0  0  0  0
   29.9789   -4.9034  -23.2662 C   0  0  0  0  0  0  0  0  0  0  0  0
   29.7650   -4.7611  -24.5708 O   0  0  0  0  0  0  0  0  0  0  0  0
   29.0651   -5.6324  -25.2937 C   0  0  0  0  0  0  0  0  0  0  0  0
   28.9304   -5.4153  -26.5268 O   0  0  0  0  0  0  0  0  0  0  0  0
   31.3666   -2.9306  -23.2710 O   0  0  0  0  0  0  0  0  0  0  0  0
   32.0596   -3.3896  -20.6294 O   0  0  0  0  0  0  0  0  0  0  0  0
   30.8062   -4.8092  -18.1202 C   0  0  0  0  0  0  0  0  0  0  0  0
   31.2520   -5.1112  -16.8283 C   0  0  0  0  0  0  0  0  0  0  0  0
   32.0230   -6.2541  -16.6035 C   0  0  0  0  0  0  0  0  0  0  0  0
   32.3587   -7.0895  -17.6676 C   0  0  0  0  0  0  0  0  0  0  0  0
   32.4593   -6.5660  -15.3219 O   0  0  0  0  0  0  0  0  0  0  0  0
   30.9203   -4.2777  -15.7658 O   0  0  0  0  0  0  0  0  0  0  0  0
   30.0147   -3.6820  -18.3226 O   0  0  0  0  0  0  0  0  0  0  0  0
   34.3268   -8.1079  -22.8430 C   0  0  0  0  0  0  0  0  0  0  0  0
   34.6764   -6.8191  -23.5857 C   0  0  0  0  0  0  0  0  0  0  0  0
   33.6600   -6.6274  -24.7105 C   0  0  0  0  0  0  0  0  0  0  0  0
   32.3519   -6.5107  -24.1941 O   0  0  0  0  0  0  0  0  0  0  0  0
   33.9747   -5.4881  -25.4514 O   0  0  0  0  0  0  0  0  0  0  0  0
   34.6522   -5.7236  -22.7162 O   0  0  0  0  0  0  0  0  0  0  0  0
   35.1592   -8.2885  -21.7364 O   0  0  0  0  0  0  0  0  0  0  0  0
   29.1377   -8.8148  -28.8426 C   0  0  0  0  0  0  0  0  0  0  0  0
   28.0759   -8.3944  -29.6423 C   0  0  0  0  0  0  0  0  0  0  0  0
   26.9720   -7.7633  -29.0640 C   0  0  0  0  0  0  0  0  0  0  0  0
   26.9258   -7.5614  -27.6802 C   0  0  0  0  0  0  0  0  0  0  0  0
   25.8118   -6.9478  -27.1147 O   0  0  0  0  0  0  0  0  0  0  0  0
   25.9155   -7.3418  -29.8638 O   0  0  0  0  0  0  0  0  0  0  0  0
   28.1241   -8.6064  -31.0143 O   0  0  0  0  0  0  0  0  0  0  0  0
   27.2704   -8.8972  -24.6833 C   0  0  0  0  0  0  0  0  0  0  0  0
   27.3441   -8.9489  -23.2879 C   0  0  0  0  0  0  0  0  0  0  0  0
   28.0595   -7.9756  -22.5892 C   0  0  0  0  0  0  0  0  0  0  0  0
   28.2254   -8.0864  -21.2757 O   0  0  0  0  0  0  0  0  0  0  0  0
   28.9744   -7.2485  -20.5636 C   0  0  0  0  0  0  0  0  0  0  0  0
   29.0495   -7.4268  -19.3193 O   0  0  0  0  0  0  0  0  0  0  0  0
   26.7442   -9.9982  -22.5998 O   0  0  0  0  0  0  0  0  0  0  0  0
   26.6217   -9.9215  -25.3676 O   0  0  0  0  0  0  0  0  0  0  0  0
   31.9305   -2.3330  -22.8206 H   0  0  0  0  0  0  0  0  0  0  0  0
   32.2920   -3.5291  -19.7325 H   0  0  0  0  0  0  0  0  0  0  0  0
   32.2368   -6.0082  -14.6026 H   0  0  0  0  0  0  0  0  0  0  0  0
   30.4032   -3.5109  -15.9156 H   0  0  0  0  0  0  0  0  0  0  0  0
   29.7112   -3.4712  -19.1837 H   0  0  0  0  0  0  0  0  0  0  0  0
   33.9382   -4.7080  -24.8761 H   0  0  0  0  0  0  0  0  0  0  0  0
   33.7652   -5.6337  -22.3339 H   0  0  0  0  0  0  0  0  0  0  0  0
   35.0248   -7.5613  -21.1087 H   0  0  0  0  0  0  0  0  0  0  0  0
   25.1018   -6.6716  -27.6600 H   0  0  0  0  0  0  0  0  0  0  0  0
   25.9464   -7.4770  -30.7905 H   0  0  0  0  0  0  0  0  0  0  0  0
   28.8670   -9.0302  -31.3971 H   0  0  0  0  0  0  0  0  0  0  0  0
   26.2637  -10.6519  -23.0685 H   0  0  0  0  0  0  0  0  0  0  0  0
   26.5657   -9.8982  -26.3026 H   0  0  0  0  0  0  0  0  0  0  0  0
  1  2  2  0  0  0
  2  3  1  0  0  0
  3  4  1  0  0  0
  4  5  2  0  0  0
  5  6  1  0  0  0
  6  7  2  0  0  0
  7  8  1  0  0  0
  8  9  2  0  0  0
  8 10  1  0  0  0
 10 11  1  0  0  0
 11 12  1  0  0  0
 12 13  1  0  0  0
 13 14  1  0  0  0
 14 15  1  0  0  0
 15 16  2  0  0  0
 15 17  1  0  0  0
 17 18  2  0  0  0
 18 19  1  0  0  0
 19 20  2  0  0  0
 20 21  1  0  0  0
 21 22  2  0  0  0
 22 23  1  0  0  0
 23 24  1  0  0  0
 24 25  2  0  0  0
 21 26  1  0  0  0
 20 27  1  0  0  0
 18 28  1  0  0  0
 28 29  2  0  0  0
 29 30  1  0  0  0
 30 31  2  0  0  0
 30 32  1  0  0  0
 29 33  1  0  0  0
 28 34  1  0  0  0
 13 35  1  0  0  0
 35 36  1  0  0  0
 36 37  1  0  0  0
 37 38  1  0  0  0
 37 39  1  0  0  0
 36 40  1  0  0  0
 35 41  1  0  0  0
  7 42  1  0  0  0
 42 43  2  0  0  0
 43 44  1  0  0  0
 44 45  2  0  0  0
 45 46  1  0  0  0
 44 47  1  0  0  0
 43 48  1  0  0  0
  5 49  1  0  0  0
 49 50  2  0  0  0
 50 51  1  0  0  0
 51 52  1  0  0  0
 52 53  1  0  0  0
 53 54  2  0  0  0
 50 55  1  0  0  0
 49 56  1  0  0  0
 19  1  1  0  0  0
 53  1  1  0  0  0
 22  2  1  0  0  0
 51  3  2  0  0  0
 24  4  1  0  0  0
 45  6  1  0  0  0
 38 12  1  0  0  0
 31 17  1  0  0  0
 26 57  1  0  0  0
 27 58  1  0  0  0
 32 59  1  0  0  0
 33 60  1  0  0  0
 34 61  1  0  0  0
 39 62  1  0  0  0
 40 63  1  0  0  0
 41 64  1  0  0  0
 46 65  1  0  0  0
 47 66  1  0  0  0
 48 67  1  0  0  0
 55 68  1  0  0  0
 56 69  1  0  0  0
M  END
>  <minimizedAffinity>
192.23220

>  <minimizedRMSD>
4.35605

$$$$
MCULE-5835629792 CHEMBL416615 LN04552873 MolPort-046-801-711 PubChem-5388496


 69 76  0  0  0  0  0  0  0  0999 V2000
   27.8803   -5.4987  -25.7527 C   0  0  0  0  0  0  0  0  0  0  0  0
   27.9360   -5.1212  -24.3969 C   0  0  0  0  0  0  0  0  0  0  0  0
   29.1690   -4.8971  -23.7804 C   0  0  0  0  0  0  0  0  0  0  0  0
   29.2333   -4.6345  -22.3974 C   0  0  0  0  0  0  0  0  0  0  0  0
   30.5112   -4.6088  -21.7720 C   0  0  0  0  0  0  0  0  0  0  0  0
   30.6694   -4.6289  -20.2986 C   0  0  0  0  0  0  0  0  0  0  0  0
   30.3513   -5.7813  -19.5241 C   0  0  0  0  0  0  0  0  0  0  0  0
   29.7834   -7.0398  -20.0874 C   0  0  0  0  0  0  0  0  0  0  0  0
   29.3362   -7.9177  -19.2971 O   0  0  0  0  0  0  0  0  0  0  0  0
   29.7200   -7.2696  -21.4660 O   0  0  0  0  0  0  0  0  0  0  0  0
   28.8900   -8.2912  -22.0057 C   0  0  0  0  0  0  0  0  0  0  0  0
   29.0210   -8.3670  -23.5307 C   0  0  0  0  0  0  0  0  0  0  0  0
   27.8533   -9.1656  -24.1319 C   0  0  0  0  0  0  0  0  0  0  0  0
   27.2864   -8.5746  -25.3055 O   0  0  0  0  0  0  0  0  0  0  0  0
   27.8589   -8.5890  -26.5852 C   0  0  0  0  0  0  0  0  0  0  0  0
   28.9550   -9.1720  -26.7929 O   0  0  0  0  0  0  0  0  0  0  0  0
   27.1686   -7.9215  -27.7105 C   0  0  0  0  0  0  0  0  0  0  0  0
   26.5489   -6.6522  -27.5751 C   0  0  0  0  0  0  0  0  0  0  0  0
   26.6297   -5.9046  -26.2956 C   0  0  0  0  0  0  0  0  0  0  0  0
   25.4602   -5.7742  -25.5174 C   0  0  0  0  0  0  0  0  0  0  0  0
   25.5311   -5.3124  -24.1982 C   0  0  0  0  0  0  0  0  0  0  0  0
   26.7701   -5.0264  -23.6218 C   0  0  0  0  0  0  0  0  0  0  0  0
   26.8477   -4.6855  -22.3394 O   0  0  0  0  0  0  0  0  0  0  0  0
   28.0020   -4.4817  -21.7088 C   0  0  0  0  0  0  0  0  0  0  0  0
   27.9691   -4.1485  -20.4949 O   0  0  0  0  0  0  0  0  0  0  0  0
   24.3689   -5.1832  -23.4451 O   0  0  0  0  0  0  0  0  0  0  0  0
   24.2240   -6.1442  -26.0400 O   0  0  0  0  0  0  0  0  0  0  0  0
   25.9070   -6.0712  -28.6864 C   0  0  0  0  0  0  0  0  0  0  0  0
   25.8871   -6.7392  -29.9168 C   0  0  0  0  0  0  0  0  0  0  0  0
   26.5170   -7.9802  -30.0506 C   0  0  0  0  0  0  0  0  0  0  0  0
   27.1551   -8.5614  -28.9553 C   0  0  0  0  0  0  0  0  0  0  0  0
   26.5121   -8.6416  -31.2722 O   0  0  0  0  0  0  0  0  0  0  0  0
   25.2490   -6.1633  -31.0099 O   0  0  0  0  0  0  0  0  0  0  0  0
   25.3046   -4.8213  -28.5766 O   0  0  0  0  0  0  0  0  0  0  0  0
   28.0494  -10.6898  -24.2235 C   0  0  0  0  0  0  0  0  0  0  0  0
   29.5148  -11.1430  -24.2421 C   0  0  0  0  0  0  0  0  0  0  0  0
   30.4227  -10.1809  -23.4750 C   0  0  0  0  0  0  0  0  0  0  0  0
   30.2784   -8.8614  -23.9486 O   0  0  0  0  0  0  0  0  0  0  0  0
   31.7557  -10.5788  -23.5813 O   0  0  0  0  0  0  0  0  0  0  0  0
   29.9605  -11.3157  -25.5528 O   0  0  0  0  0  0  0  0  0  0  0  0
   27.3937  -11.2994  -23.1546 O   0  0  0  0  0  0  0  0  0  0  0  0
   30.5433   -5.7293  -18.1352 C   0  0  0  0  0  0  0  0  0  0  0  0
   31.0416   -4.5870  -17.5127 C   0  0  0  0  0  0  0  0  0  0  0  0
   31.3544   -3.4591  -18.2723 C   0  0  0  0  0  0  0  0  0  0  0  0
   31.1691   -3.4756  -19.6584 C   0  0  0  0  0  0  0  0  0  0  0  0
   31.4765   -2.3380  -20.3996 O   0  0  0  0  0  0  0  0  0  0  0  0
   31.8488   -2.3180  -17.6500 O   0  0  0  0  0  0  0  0  0  0  0  0
   31.2211   -4.5784  -16.1352 O   0  0  0  0  0  0  0  0  0  0  0  0
   31.6759   -4.6986  -22.5636 C   0  0  0  0  0  0  0  0  0  0  0  0
   31.5843   -4.8726  -23.9473 C   0  0  0  0  0  0  0  0  0  0  0  0
   30.3358   -5.0095  -24.5533 C   0  0  0  0  0  0  0  0  0  0  0  0
   30.2527   -5.2632  -25.8544 O   0  0  0  0  0  0  0  0  0  0  0  0
   29.1006   -5.4920  -26.4778 C   0  0  0  0  0  0  0  0  0  0  0  0
   29.1241   -5.6885  -27.7215 O   0  0  0  0  0  0  0  0  0  0  0  0
   32.7414   -4.9511  -24.7152 O   0  0  0  0  0  0  0  0  0  0  0  0
   32.9344   -4.6464  -21.9704 O   0  0  0  0  0  0  0  0  0  0  0  0
   23.5369   -5.3749  -23.8310 H   0  0  0  0  0  0  0  0  0  0  0  0
   24.1622   -6.4551  -26.9218 H   0  0  0  0  0  0  0  0  0  0  0  0
   26.0850   -8.2562  -32.0119 H   0  0  0  0  0  0  0  0  0  0  0  0
   24.8267   -5.3316  -30.9211 H   0  0  0  0  0  0  0  0  0  0  0  0
   25.3133   -4.3674  -27.7569 H   0  0  0  0  0  0  0  0  0  0  0  0
   32.0260  -10.5583  -24.5126 H   0  0  0  0  0  0  0  0  0  0  0  0
   29.9216  -10.4675  -26.0219 H   0  0  0  0  0  0  0  0  0  0  0  0
   27.7940  -11.0072  -22.3207 H   0  0  0  0  0  0  0  0  0  0  0  0
   31.8082   -1.5743  -19.9699 H   0  0  0  0  0  0  0  0  0  0  0  0
   31.9728   -2.3072  -16.7213 H   0  0  0  0  0  0  0  0  0  0  0  0
   31.0093   -5.3388  -15.6304 H   0  0  0  0  0  0  0  0  0  0  0  0
   33.5806   -4.8591  -24.3086 H   0  0  0  0  0  0  0  0  0  0  0  0
   33.0112   -4.5301  -21.0438 H   0  0  0  0  0  0  0  0  0  0  0  0
  1  2  2  0  0  0
  2  3  1  0  0  0
  3  4  1  0  0  0
  4  5  2  0  0  0
  5  6  1  0  0  0
  6  7  2  0  0  0
  7  8  1  0  0  0
  8  9  2  0  0  0
  8 10  1  0  0  0
 10 11  1  0  0  0
 11 12  1  0  0  0
 12 13  1  0  0  0
 13 14  1  0  0  0
 14 15  1  0  0  0
 15 16  2  0  0  0
 15 17  1  0  0  0
 17 18  2  0  0  0
 18 19  1  0  0  0
 19 20  2  0  0  0
 20 21  1  0  0  0
 21 22  2  0  0  0
 22 23  1  0  0  0
 23 24  1  0  0  0
 24 25  2  0  0  0
 21 26  1  0  0  0
 20 27  1  0  0  0
 18 28  1  0  0  0
 28 29  2  0  0  0
 29 30  1  0  0  0
 30 31  2  0  0  0
 30 32  1  0  0  0
 29 33  1  0  0  0
 28 34  1  0  0  0
 13 35  1  0  0  0
 35 36  1  0  0  0
 36 37  1  0  0  0
 37 38  1  0  0  0
 37 39  1  0  0  0
 36 40  1  0  0  0
 35 41  1  0  0  0
  7 42  1  0  0  0
 42 43  2  0  0  0
 43 44  1  0  0  0
 44 45  2  0  0  0
 45 46  1  0  0  0
 44 47  1  0  0  0
 43 48  1  0  0  0
  5 49  1  0  0  0
 49 50  2  0  0  0
 50 51  1  0  0  0
 51 52  1  0  0  0
 52 53  1  0  0  0
 53 54  2  0  0  0
 50 55  1  0  0  0
 49 56  1  0  0  0
 19  1  1  0  0  0
 53  1  1  0  0  0
 22  2  1  0  0  0
 51  3  2  0  0  0
 24  4  1  0  0  0
 45  6  1  0  0  0
 38 12  1  0  0  0
 31 17  1  0  0  0
 26 57  1  0  0  0
 27 58  1  0  0  0
 32 59  1  0  0  0
 33 60  1  0  0  0
 34 61  1  0  0  0
 39 62  1  0  0  0
 40 63  1  0  0  0
 41 64  1  0  0  0
 46 65  1  0  0  0
 47 66  1  0  0  0
 48 67  1  0  0  0
 55 68  1  0  0  0
 56 69  1  0  0  0
M  END
>  <minimizedAffinity>
194.00277

>  <minimizedRMSD>
8.87246

$$$$
MCULE-2359203891 MCULE-3589020151 PubChem-13366009


122131  0  0  0  0  0  0  0  0999 V2000
   31.2566   -8.7596  -19.3193 C   0  0  0  0  0  0  0  0  0  0  0  0
   31.4352   -9.1679  -20.6546 C   0  0  0  0  0  0  0  0  0  0  0  0
   30.3090   -9.4521  -21.4511 C   0  0  0  0  0  0  0  0  0  0  0  0
   29.0157   -9.3557  -20.9267 C   0  0  0  0  0  0  0  0  0  0  0  0
   28.8610   -8.9463  -19.5993 C   0  0  0  0  0  0  0  0  0  0  0  0
   29.9643   -8.6475  -18.7908 C   0  0  0  0  0  0  0  0  0  0  0  0
   29.7768   -8.1703  -17.4854 O   0  0  0  0  0  0  0  0  0  0  0  0
   28.5353   -7.6870  -17.0670 C   0  0  0  0  0  0  0  0  0  0  0  0
   28.1536   -6.3683  -17.3556 C   0  0  0  0  0  0  0  0  0  0  0  0
   26.8533   -5.9443  -17.0819 C   0  0  0  0  0  0  0  0  0  0  0  0
   25.9356   -6.8175  -16.4865 C   0  0  0  0  0  0  0  0  0  0  0  0
   26.3320   -8.1217  -16.1619 C   0  0  0  0  0  0  0  0  0  0  0  0
   27.6294   -8.5546  -16.4457 C   0  0  0  0  0  0  0  0  0  0  0  0
   24.5110   -6.3843  -16.3198 C   0  0  0  0  0  0  0  0  0  0  0  0
   23.6837   -6.8124  -17.5401 C   0  0  0  0  0  0  0  0  0  0  0  0
   23.9837   -5.9285  -18.7163 C   0  0  0  0  0  0  0  0  0  0  0  0
   23.7511   -4.6934  -18.6473 O   0  0  0  0  0  0  0  0  0  0  0  0
   24.5723   -6.4572  -19.9055 N   0  0  0  0  0  0  0  0  0  0  0  0
   24.7448   -7.8851  -20.1363 C   0  0  0  0  0  0  0  0  0  0  0  0
   25.8384   -8.1319  -21.1318 C   0  0  0  0  0  0  0  0  0  0  0  0
   26.0719   -7.2914  -22.0457 O   0  0  0  0  0  0  0  0  0  0  0  0
   26.5659   -9.3577  -21.0737 N   0  0  0  0  0  0  0  0  0  0  0  0
   27.8091   -9.5818  -21.8064 C   0  0  0  0  0  0  0  0  0  0  0  0
   27.7943  -10.9534  -22.4100 C   0  0  0  0  0  0  0  0  0  0  0  0
   27.5567  -11.9564  -21.6836 O   0  0  0  0  0  0  0  0  0  0  0  0
   28.0512  -11.1428  -23.8025 N   0  0  0  0  0  0  0  0  0  0  0  0
   28.5558  -10.0677  -24.6458 C   0  0  0  0  0  0  0  0  0  0  0  0
   27.5290   -9.6497  -25.6573 C   0  0  0  0  0  0  0  0  0  0  0  0
   27.4262  -10.3122  -26.8849 C   0  0  0  0  0  0  0  0  0  0  0  0
   26.5631   -9.8581  -27.8783 C   0  0  0  0  0  0  0  0  0  0  0  0
   25.7548   -8.7367  -27.6294 C   0  0  0  0  0  0  0  0  0  0  0  0
   25.8349   -8.0828  -26.3953 C   0  0  0  0  0  0  0  0  0  0  0  0
   26.7253   -8.5341  -25.4140 C   0  0  0  0  0  0  0  0  0  0  0  0
   24.8949   -8.2534  -28.6083 O   0  0  0  0  0  0  0  0  0  0  0  0
   26.5499  -10.5695  -29.1743 C   0  0  0  0  0  0  0  0  0  0  0  0
   25.4711  -11.4198  -29.4850 C   0  0  0  0  0  0  0  0  0  0  0  0
   25.5188  -12.2312  -30.6205 C   0  0  0  0  0  0  0  0  0  0  0  0
   26.6366  -12.2047  -31.4555 C   0  0  0  0  0  0  0  0  0  0  0  0
   27.6989  -11.3435  -31.1734 C   0  0  0  0  0  0  0  0  0  0  0  0
   27.6626  -10.5069  -30.0469 C   0  0  0  0  0  0  0  0  0  0  0  0
   28.8017   -9.5430  -29.7884 C   0  0  0  0  0  0  0  0  0  0  0  0
   29.9078  -10.1945  -29.0916 N   0  0  0  0  0  0  0  0  0  0  0  0
   30.9733   -9.4560  -28.4786 C   0  0  0  0  0  0  0  0  0  0  0  0
   31.3481   -8.3550  -28.9659 O   0  0  0  0  0  0  0  0  0  0  0  0
   31.4861   -9.9044  -27.1447 C   0  0  0  0  0  0  0  0  0  0  0  0
   32.8741   -9.3193  -26.8130 C   0  0  0  0  0  0  0  0  0  0  0  0
   33.1319   -9.3129  -25.3365 C   0  0  0  0  0  0  0  0  0  0  0  0
   33.0614   -8.0915  -24.6575 C   0  0  0  0  0  0  0  0  0  0  0  0
   33.0067   -8.0654  -23.2651 C   0  0  0  0  0  0  0  0  0  0  0  0
   32.9774   -9.2726  -22.5487 C   0  0  0  0  0  0  0  0  0  0  0  0
   32.7340   -9.2620  -21.1756 O   0  0  0  0  0  0  0  0  0  0  0  0
   33.1212  -10.4914  -23.2194 C   0  0  0  0  0  0  0  0  0  0  0  0
   33.1924  -10.5136  -24.6123 C   0  0  0  0  0  0  0  0  0  0  0  0
   32.8758   -6.5157  -22.4456 Cl  0  0  0  0  0  0  0  0  0  0  0  0
   33.8713  -10.0353  -27.4783 O   0  0  0  0  0  0  0  0  0  0  0  0
   30.5023   -9.5116  -26.1451 N   0  0  0  0  0  0  0  0  0  0  0  0
   29.8324  -10.4678  -25.3266 C   0  0  0  0  0  0  0  0  0  0  0  0
   30.2612  -11.6528  -25.2504 O   0  0  0  0  0  0  0  0  0  0  0  0
   26.6872  -13.0296  -32.5686 O   0  0  0  0  0  0  0  0  0  0  0  0
   24.3551  -11.4768  -28.6614 O   0  0  0  0  0  0  0  0  0  0  0  0
   23.9870   -6.9141  -15.1343 O   0  0  0  0  0  0  0  0  0  0  0  0
   29.2599   -5.2574  -18.1419 Cl  0  0  0  0  0  0  0  0  0  0  0  0
   24.8750   -5.8285  -20.6001 H   0  0  0  0  0  0  0  0  0  0  0  0
   26.2135  -10.0866  -20.5135 H   0  0  0  0  0  0  0  0  0  0  0  0
   27.8823  -12.0257  -24.2039 H   0  0  0  0  0  0  0  0  0  0  0  0
   24.8370   -8.6873  -29.4368 H   0  0  0  0  0  0  0  0  0  0  0  0
   29.9224  -11.1776  -29.0409 H   0  0  0  0  0  0  0  0  0  0  0  0
   33.8621  -10.9576  -27.1780 H   0  0  0  0  0  0  0  0  0  0  0  0
   30.2934   -8.5563  -26.0310 H   0  0  0  0  0  0  0  0  0  0  0  0
   25.9735  -13.6070  -32.7566 H   0  0  0  0  0  0  0  0  0  0  0  0
   24.3095  -10.9380  -27.8962 H   0  0  0  0  0  0  0  0  0  0  0  0
   24.0154   -7.8829  -15.1728 H   0  0  0  0  0  0  0  0  0  0  0  0
   29.2540   -8.8181  -31.0247 C   0  0  0  0  0  0  0  0  0  0  0  0
   29.5324   -9.4507  -32.0752 O   0  0  0  0  0  0  0  0  0  0  0  0
   29.3138   -7.4310  -31.0206 O   0  0  0  0  0  0  0  0  0  0  0  0
   29.1072   -6.9555  -30.2400 H   0  0  0  0  0  0  0  0  0  0  0  0
   22.2583   -6.7737  -17.2467 N   0  0  0  0  0  0  0  0  0  0  0  0
   21.5529   -7.9395  -16.8088 C   0  0  0  0  0  0  0  0  0  0  0  0
   22.1567   -9.0391  -16.6814 O   0  0  0  0  0  0  0  0  0  0  0  0
   21.7684   -5.9263  -17.3520 H   0  0  0  0  0  0  0  0  0  0  0  0
   20.0994   -7.8630  -16.4872 C   0  0  0  0  0  0  0  0  0  0  0  0
   19.8199   -6.6475  -15.7469 N   0  0  0  0  0  0  0  0  0  0  0  0
   20.0682   -5.8382  -16.3159 H   0  0  0  0  0  0  0  0  0  0  0  0
   20.3682   -6.6395  -14.8869 H   0  0  0  0  0  0  0  0  0  0  0  0
   19.2706   -7.8845  -17.7612 C   0  0  0  0  0  0  0  0  0  0  0  0
   18.6312   -9.2530  -17.9678 C   0  0  0  0  0  0  0  0  0  0  0  0
   18.7259  -10.0664  -16.6878 C   0  0  0  0  0  0  0  0  0  0  0  0
   17.1800   -9.0735  -18.3417 C   0  0  0  0  0  0  0  0  0  0  0  0
   32.3504   -8.3746  -18.5459 O   0  0  0  0  0  0  0  0  0  0  0  0
   34.4608   -7.0851  -18.5698 C   0  0  0  0  0  0  0  0  0  0  0  0
   34.9872   -5.6580  -18.4004 C   0  0  0  0  0  0  0  0  0  0  0  0
   34.1141   -4.7974  -17.4705 C   0  0  0  0  0  0  0  0  0  0  0  0
   32.9081   -5.5921  -16.9633 C   0  0  0  0  0  0  0  0  0  0  0  0
   32.1818   -6.0925  -18.0632 O   0  0  0  0  0  0  0  0  0  0  0  0
   32.9266   -7.0897  -18.7521 C   0  0  0  0  0  0  0  0  0  0  0  0
   34.8867   -4.3284  -16.3931 O   0  0  0  0  0  0  0  0  0  0  0  0
   35.0959   -5.0406  -19.6517 O   0  0  0  0  0  0  0  0  0  0  0  0
   35.2255   -5.0825  -15.8858 H   0  0  0  0  0  0  0  0  0  0  0  0
   34.2174   -4.9764  -20.0579 H   0  0  0  0  0  0  0  0  0  0  0  0
   32.0026   -4.7016  -16.1282 C   0  0  0  0  0  0  0  0  0  0  0  0
   31.2723   -3.8576  -16.9671 O   0  0  0  0  0  0  0  0  0  0  0  0
   31.8824   -3.3048  -17.4801 H   0  0  0  0  0  0  0  0  0  0  0  0
   34.8201   -7.8489  -17.4533 O   0  0  0  0  0  0  0  0  0  0  0  0
   37.7317   -6.9480  -17.2385 C   0  0  0  0  0  0  0  0  0  0  0  0
   37.5480   -8.4597  -17.3163 C   0  0  0  0  0  0  0  0  0  0  0  0
   37.2661   -9.1454  -15.9556 C   0  0  0  0  0  0  0  0  0  0  0  0
   36.4782  -10.4453  -16.1513 C   0  0  0  0  0  0  0  0  0  0  0  0
   35.2075  -10.1903  -16.9746 C   0  0  0  0  0  0  0  0  0  0  0  0
   35.3613   -9.0295  -17.9759 C   0  0  0  0  0  0  0  0  0  0  0  0
   36.7032   -8.8393  -18.3947 O   0  0  0  0  0  0  0  0  0  0  0  0
   37.3435  -11.4728  -16.8650 C   0  0  0  0  0  0  0  0  0  0  0  0
   36.0993  -10.9953  -14.8589 N   0  0  0  0  0  0  0  0  0  0  0  0
   36.5694   -8.2854  -15.0940 O   0  0  0  0  0  0  0  0  0  0  0  0
   35.5170  -10.3223  -14.3605 H   0  0  0  0  0  0  0  0  0  0  0  0
   36.9386  -11.1890  -14.3125 H   0  0  0  0  0  0  0  0  0  0  0  0
   35.7103   -8.0620  -15.4853 H   0  0  0  0  0  0  0  0  0  0  0  0
   23.4270   -8.4927  -20.6186 C   0  0  0  0  0  0  0  0  0  0  0  0
   23.1173   -9.8171  -19.9825 C   0  0  0  0  0  0  0  0  0  0  0  0
   23.5707  -10.1213  -18.8469 O   0  0  0  0  0  0  0  0  0  0  0  0
   22.2709  -10.7299  -20.6671 N   0  0  0  0  0  0  0  0  0  0  0  0
   21.9132  -10.4986  -21.5547 H   0  0  0  0  0  0  0  0  0  0  0  0
   22.0421  -11.5937  -20.2540 H   0  0  0  0  0  0  0  0  0  0  0  0
104105  1  0  0  0
105106  1  0  0  0
106107  1  0  0  0
107108  1  0  0  0
108109  1  0  0  0
109110  1  0  0  0
109103  1  0  0  0
103 90  1  0  0  0
 90 91  1  0  0  0
 91 92  1  0  0  0
 92 93  1  0  0  0
 93 94  1  0  0  0
 94 95  1  0  0  0
 95 89  1  0  0  0
 89  1  1  0  0  0
  1  2  1  0  0  0
  2  3  2  0  0  0
  3  4  1  0  0  0
  4  5  2  0  0  0
  5  6  1  0  0  0
  6  7  1  0  0  0
  7  8  1  0  0  0
  8  9  2  0  0  0
  9 10  1  0  0  0
 10 11  2  0  0  0
 11 12  1  0  0  0
 12 13  2  0  0  0
 11 14  1  0  0  0
 14 15  1  0  0  0
 15 16  1  0  0  0
 16 17  2  0  0  0
 16 18  1  0  0  0
 18 19  1  0  0  0
 19 20  1  0  0  0
 20 21  2  0  0  0
 20 22  1  0  0  0
 22 23  1  0  0  0
 23 24  1  0  0  0
 24 25  2  0  0  0
 24 26  1  0  0  0
 26 27  1  0  0  0
 27 28  1  0  0  0
 28 29  2  0  0  0
 29 30  1  0  0  0
 30 31  2  0  0  0
 31 32  1  0  0  0
 32 33  2  0  0  0
 31 34  1  0  0  0
 30 35  1  0  0  0
 35 36  2  0  0  0
 36 37  1  0  0  0
 37 38  2  0  0  0
 38 39  1  0  0  0
 39 40  2  0  0  0
 40 41  1  0  0  0
 41 42  1  0  0  0
 42 43  1  0  0  0
 43 44  2  0  0  0
 43 45  1  0  0  0
 45 46  1  0  0  0
 46 47  1  0  0  0
 47 48  2  0  0  0
 48 49  1  0  0  0
 49 50  2  0  0  0
 50 51  1  0  0  0
 50 52  1  0  0  0
 52 53  2  0  0  0
 49 54  1  0  0  0
 46 55  1  0  0  0
 45 56  1  0  0  0
 56 57  1  0  0  0
 57 58  2  0  0  0
 41 73  1  0  0  0
 73 74  2  0  0  0
 73 75  1  0  0  0
 38 59  1  0  0  0
 36 60  1  0  0  0
 19117  1  0  0  0
117118  1  0  0  0
118119  2  0  0  0
118120  1  0  0  0
 15 77  1  0  0  0
 77 78  1  0  0  0
 78 79  2  0  0  0
 78 81  1  0  0  0
 81 85  1  0  0  0
 85 86  1  0  0  0
 86 87  1  0  0  0
 86 88  1  0  0  0
 81 82  1  0  0  0
 14 61  1  0  0  0
  9 62  1  0  0  0
 93100  1  0  0  0
100101  1  0  0  0
 92 96  1  0  0  0
 91 97  1  0  0  0
107111  1  0  0  0
107112  1  0  0  0
106113  1  0  0  0
110105  1  0  0  0
 53 47  1  0  0  0
 95 90  1  0  0  0
  6  1  2  0  0  0
 51  2  1  0  0  0
 23  4  1  0  0  0
 13  8  1  0  0  0
 57 27  1  0  0  0
 33 28  1  0  0  0
 40 35  1  0  0  0
 18 63  1  0  0  0
 22 64  1  0  0  0
 26 65  1  0  0  0
 34 66  1  0  0  0
 42 67  1  0  0  0
 55 68  1  0  0  0
 56 69  1  0  0  0
 75 76  1  0  0  0
 59 70  1  0  0  0
 60 71  1  0  0  0
120121  1  0  0  0
120122  1  0  0  0
 77 80  1  0  0  0
 82 83  1  0  0  0
 82 84  1  0  0  0
 61 72  1  0  0  0
101102  1  0  0  0
 96 98  1  0  0  0
 97 99  1  0  0  0
112114  1  0  0  0
112115  1  0  0  0
113116  1  0  0  0
M  END
>  <minimizedAffinity>
202.36822

>  <minimizedRMSD>
5.61029

$$$$
MCULE-8295886704 CHEMBL490450 LN04601464 MolPort-035-706-440 PubChem-14466231


 64 70  0  0  0  0  0  0  0  0999 V2000
   22.6497   -1.2401  -20.8508 C   0  0  0  0  0  0  0  0  0  0  0  0
   23.7338   -0.6990  -21.7640 C   0  0  0  0  0  0  0  0  0  0  0  0
   23.3429   -0.8924  -23.2300 C   0  0  0  0  0  0  0  0  0  0  0  0
   23.6087   -2.3287  -23.6694 C   0  0  0  0  0  0  0  0  0  0  0  0
   25.0908   -2.7266  -23.5670 C   0  0  0  0  0  0  0  0  0  0  0  0
   25.0952   -4.1573  -23.0065 C   0  0  0  0  0  0  0  0  0  0  0  0
   26.5040   -4.7015  -22.7673 C   0  0  0  0  0  0  0  0  0  0  0  0
   27.3389   -3.8275  -21.8055 C   0  0  0  0  0  0  0  0  0  0  0  0
   27.2425   -2.3614  -22.2640 C   0  0  0  0  0  0  0  0  0  0  0  0
   28.3024   -1.5204  -22.2519 C   0  0  0  0  0  0  0  0  0  0  0  0
   29.7088   -1.9305  -21.8881 C   0  0  0  0  0  0  0  0  0  0  0  0
   29.6790   -3.2443  -21.1108 C   0  0  0  0  0  0  0  0  0  0  0  0
   30.9831   -3.7465  -20.4732 C   0  0  0  0  0  0  0  0  0  0  0  0
   31.8819   -4.4003  -21.5251 C   0  0  0  0  0  0  0  0  0  0  0  0
   31.7436   -2.5940  -19.8086 C   0  0  0  0  0  0  0  0  0  0  0  0
   32.9374   -3.1100  -19.0079 C   0  0  0  0  0  0  0  0  0  0  0  0
   32.4685   -4.0417  -17.8897 C   0  0  0  0  0  0  0  0  0  0  0  0
   31.6581   -5.2472  -18.4181 C   0  0  0  0  0  0  0  0  0  0  0  0
   32.5605   -6.2531  -19.1237 C   0  0  0  0  0  0  0  0  0  0  0  0
   31.0154   -5.9412  -17.2264 C   0  0  0  0  0  0  0  0  0  0  0  0
   30.5532   -4.7442  -19.3740 C   0  0  0  0  0  0  0  0  0  0  0  0
   29.4314   -5.7432  -19.7330 C   0  0  0  0  0  0  0  0  0  0  0  0
   29.0143   -5.7215  -21.2099 C   0  0  0  0  0  0  0  0  0  0  0  0
   28.8293   -4.3176  -21.8323 C   0  0  0  0  0  0  0  0  0  0  0  0
   29.3183   -4.4550  -23.2819 C   0  0  0  0  0  0  0  0  0  0  0  0
   25.8959   -1.7786  -22.6312 C   0  0  0  0  0  0  0  0  0  0  0  0
   25.0847   -1.3262  -21.3953 C   0  0  0  0  0  0  0  0  0  0  0  0
   25.8579   -0.3195  -20.5587 C   0  0  0  0  0  0  0  0  0  0  0  0
   26.7847   -3.9252  -20.3898 C   0  0  0  0  0  0  0  0  0  0  0  0
   27.2666   -3.0849  -19.3930 O   0  0  0  0  0  0  0  0  0  0  0  0
   25.9069   -4.7796  -20.0917 O   0  0  0  0  0  0  0  0  0  0  0  0
   27.9191   -2.4437  -19.5957 H   0  0  0  0  0  0  0  0  0  0  0  0
   25.6759   -2.6672  -24.9595 C   0  0  0  0  0  0  0  0  0  0  0  0
   25.7021   -1.5651  -25.5748 O   0  0  0  0  0  0  0  0  0  0  0  0
   26.1726   -3.8200  -25.5726 O   0  0  0  0  0  0  0  0  0  0  0  0
   26.6406   -3.8250  -26.9141 C   0  0  0  0  0  0  0  0  0  0  0  0
   25.5518   -3.6941  -27.7959 O   0  0  0  0  0  0  0  0  0  0  0  0
   26.1109   -3.5141  -29.0700 C   0  0  0  0  0  0  0  0  0  0  0  0
   26.6798   -4.8365  -29.6023 C   0  0  0  0  0  0  0  0  0  0  0  0
   27.8231   -4.5828  -30.3590 O   0  0  0  0  0  0  0  0  0  0  0  0
   27.0146   -5.8207  -28.4717 C   0  0  0  0  0  0  0  0  0  0  0  0
   25.9080   -6.6329  -28.2217 O   0  0  0  0  0  0  0  0  0  0  0  0
   27.4341   -5.1184  -27.1722 C   0  0  0  0  0  0  0  0  0  0  0  0
   28.7956   -4.8211  -27.2208 O   0  0  0  0  0  0  0  0  0  0  0  0
   28.4981   -4.1713  -29.7969 H   0  0  0  0  0  0  0  0  0  0  0  0
   25.1644   -6.0843  -27.9268 H   0  0  0  0  0  0  0  0  0  0  0  0
   28.9675   -4.2113  -27.9553 H   0  0  0  0  0  0  0  0  0  0  0  0
   25.0572   -2.9847  -30.0264 C   0  0  0  0  0  0  0  0  0  0  0  0
   24.7109   -1.6798  -29.6712 O   0  0  0  0  0  0  0  0  0  0  0  0
   24.3553   -1.6739  -28.7688 H   0  0  0  0  0  0  0  0  0  0  0  0
   33.5698   -4.4586  -17.1302 O   0  0  0  0  0  0  0  0  0  0  0  0
   33.4104   -3.8508  -15.8805 C   0  0  0  0  0  0  0  0  0  0  0  0
   34.1502   -2.6550  -15.8435 O   0  0  0  0  0  0  0  0  0  0  0  0
   33.7476   -1.9625  -14.6885 C   0  0  0  0  0  0  0  0  0  0  0  0
   34.2904   -0.5479  -14.7476 C   0  0  0  0  0  0  0  0  0  0  0  0
   34.2779   -2.6821  -13.4410 C   0  0  0  0  0  0  0  0  0  0  0  0
   33.8570   -2.0168  -12.2866 O   0  0  0  0  0  0  0  0  0  0  0  0
   33.7473   -4.1163  -13.4195 C   0  0  0  0  0  0  0  0  0  0  0  0
   34.4219   -4.8501  -12.4420 O   0  0  0  0  0  0  0  0  0  0  0  0
   33.9092   -4.7940  -14.7805 C   0  0  0  0  0  0  0  0  0  0  0  0
   33.1690   -5.9780  -14.7999 O   0  0  0  0  0  0  0  0  0  0  0  0
   32.8876   -2.0066  -12.2546 H   0  0  0  0  0  0  0  0  0  0  0  0
   35.3680   -4.8778  -12.6540 H   0  0  0  0  0  0  0  0  0  0  0  0
   32.2327   -5.7766  -14.6461 H   0  0  0  0  0  0  0  0  0  0  0  0
  2  1  1  0  0  0
  2  3  1  0  0  0
  3  4  1  0  0  0
  4  5  1  0  0  0
  5  6  1  0  0  0
  6  7  1  0  0  0
  7  8  1  0  0  0
  8 29  1  0  0  0
 29 30  1  0  0  0
 29 31  2  0  0  0
  8  9  1  0  0  0
  9 10  2  0  0  0
 10 11  1  0  0  0
 12 11  1  0  0  0
 12 13  1  0  0  0
 13 14  1  0  0  0
 13 15  1  0  0  0
 15 16  1  0  0  0
 16 17  1  0  0  0
 17 51  1  0  0  0
 52 51  1  0  0  0
 52 53  1  0  0  0
 53 54  1  0  0  0
 54 55  1  0  0  0
 54 56  1  0  0  0
 56 57  1  0  0  0
 56 58  1  0  0  0
 58 59  1  0  0  0
 58 60  1  0  0  0
 60 61  1  0  0  0
 17 18  1  0  0  0
 18 19  1  0  0  0
 18 20  1  0  0  0
 21 18  1  0  0  0
 21 22  1  0  0  0
 22 23  1  0  0  0
 23 24  1  0  0  0
 24 25  1  0  0  0
 26  9  1  0  0  0
 26 27  1  0  0  0
 27 28  1  0  0  0
  5 33  1  0  0  0
 33 34  2  0  0  0
 33 35  1  0  0  0
 36 35  1  0  0  0
 36 37  1  0  0  0
 37 38  1  0  0  0
 38 48  1  0  0  0
 48 49  1  0  0  0
 38 39  1  0  0  0
 39 40  1  0  0  0
 39 41  1  0  0  0
 41 42  1  0  0  0
 41 43  1  0  0  0
 43 44  1  0  0  0
 27  2  1  0  0  0
 43 36  1  0  0  0
 26  5  1  0  0  0
 24  8  1  0  0  0
 24 12  1  0  0  0
 21 13  1  0  0  0
 60 52  1  0  0  0
 30 32  1  0  0  0
 57 62  1  0  0  0
 59 63  1  0  0  0
 61 64  1  0  0  0
 49 50  1  0  0  0
 40 45  1  0  0  0
 42 46  1  0  0  0
 44 47  1  0  0  0
M  END
>  <minimizedAffinity>
203.28940

>  <minimizedRMSD>
1.45300

$$$$
MCULE-7336968936


 66 70  0  0  0  0  0  0  0  0999 V2000
   29.5024   -5.0590  -25.1372 C   0  0  0  0  0  0  0  0  0  0  0  0
   28.3781   -4.6000  -24.4391 C   0  0  0  0  0  0  0  0  0  0  0  0
   27.1363   -4.7317  -25.0452 O   0  0  0  0  0  0  0  0  0  0  0  0
   28.5164   -4.0309  -23.1502 C   0  0  0  0  0  0  0  0  0  0  0  0
   27.4184   -3.7279  -22.3021 C   0  0  0  0  0  0  0  0  0  0  0  0
   25.9661   -3.9454  -22.3873 C   0  0  0  0  0  0  0  0  0  0  0  0
   25.3284   -4.4173  -23.3625 O   0  0  0  0  0  0  0  0  0  0  0  0
   25.3300   -3.5886  -21.0806 C   0  0  0  0  0  0  0  0  0  0  0  0
   24.2860   -2.4985  -21.2532 C   0  0  0  0  0  0  0  0  0  0  0  0
   24.7610   -4.7658  -20.5022 O   0  0  0  0  0  0  0  0  0  0  0  0
   24.4092   -4.9296  -19.1562 C   0  0  0  0  0  0  0  0  0  0  0  0
   24.6316   -4.0108  -18.2224 C   0  0  0  0  0  0  0  0  0  0  0  0
   24.2647   -4.2882  -16.8019 C   0  0  0  0  0  0  0  0  0  0  0  0
   25.5193   -4.6121  -15.9604 C   0  0  0  0  0  0  0  0  0  0  0  0
   26.1749   -5.9733  -16.2544 C   0  0  0  0  0  0  0  0  0  0  0  0
   27.6015   -5.8170  -16.7986 C   0  0  0  0  0  0  0  0  0  0  0  0
   28.3904   -7.1407  -16.7560 C   0  0  0  0  0  0  0  0  0  0  0  0
   29.9048   -6.9641  -16.9674 C   0  0  0  0  0  0  0  0  0  0  0  0
   30.2511   -6.5793  -18.4216 C   0  0  0  0  0  0  0  0  0  0  0  0
   30.3677   -7.7910  -19.3588 C   0  0  0  0  0  0  0  0  0  0  0  0
   30.5458   -7.3112  -20.7574 C   0  0  0  0  0  0  0  0  0  0  0  0
   31.6959   -7.4688  -21.3945 C   0  0  0  0  0  0  0  0  0  0  0  0
   31.8240   -6.9289  -22.7476 C   0  0  0  0  0  0  0  0  0  0  0  0
   32.9770   -6.8080  -23.4089 C   0  0  0  0  0  0  0  0  0  0  0  0
   33.0272   -6.1488  -24.7411 C   0  0  0  0  0  0  0  0  0  0  0  0
   34.0775   -6.2557  -25.4277 O   0  0  0  0  0  0  0  0  0  0  0  0
   31.9218   -5.4189  -25.3066 N   0  0  0  0  0  0  0  0  0  0  0  0
   30.7880   -4.8792  -24.6064 C   0  0  0  0  0  0  0  0  0  0  0  0
   30.9558   -4.1492  -23.4193 C   0  0  0  0  0  0  0  0  0  0  0  0
   29.8330   -3.7694  -22.6470 C   0  0  0  0  0  0  0  0  0  0  0  0
   29.9943   -3.1765  -21.3603 C   0  0  0  0  0  0  0  0  0  0  0  0
   28.8776   -2.9064  -20.5578 C   0  0  0  0  0  0  0  0  0  0  0  0
   27.6155   -3.2231  -21.0380 C   0  0  0  0  0  0  0  0  0  0  0  0
   26.4341   -3.1119  -20.3163 O   0  0  0  0  0  0  0  0  0  0  0  0
   29.0355   -2.3263  -19.1919 C   0  0  0  0  0  0  0  0  0  0  0  0
   31.2588   -2.8776  -20.8584 O   0  0  0  0  0  0  0  0  0  0  0  0
   32.2478   -3.8286  -23.0105 O   0  0  0  0  0  0  0  0  0  0  0  0
   34.2519   -7.2994  -22.7986 C   0  0  0  0  0  0  0  0  0  0  0  0
   29.1349   -8.6774  -19.3200 C   0  0  0  0  0  0  0  0  0  0  0  0
   31.4428   -5.8473  -18.4730 O   0  0  0  0  0  0  0  0  0  0  0  0
   30.4863   -5.9963  -15.9382 C   0  0  0  0  0  0  0  0  0  0  0  0
   28.1736   -7.8074  -15.5465 O   0  0  0  0  0  0  0  0  0  0  0  0
   27.5749   -5.2555  -18.2108 C   0  0  0  0  0  0  0  0  0  0  0  0
   25.2117   -4.5564  -14.4732 C   0  0  0  0  0  0  0  0  0  0  0  0
   27.0698   -5.1117  -25.8991 H   0  0  0  0  0  0  0  0  0  0  0  0
   31.9452   -5.2735  -26.2800 H   0  0  0  0  0  0  0  0  0  0  0  0
   32.0209   -3.0490  -21.3760 H   0  0  0  0  0  0  0  0  0  0  0  0
   32.9819   -4.0867  -23.5324 H   0  0  0  0  0  0  0  0  0  0  0  0
   32.1756   -6.4002  -18.1596 H   0  0  0  0  0  0  0  0  0  0  0  0
   28.5146   -7.2693  -14.8150 H   0  0  0  0  0  0  0  0  0  0  0  0
   27.8789   -7.3083  -25.4735 O   0  0  0  0  0  0  0  0  0  0  0  0
   28.5689   -6.8101  -26.5594 N   0  0  0  0  0  0  0  0  0  0  0  0
   29.3080   -5.7477  -26.4295 C   0  0  0  0  0  0  0  0  0  0  0  0
   28.4277   -7.4393  -27.8130 N   0  0  0  0  0  0  0  0  0  0  0  0
   27.8243   -6.7538  -28.9528 C   0  0  0  0  0  0  0  0  0  0  0  0
   28.5870   -7.1134  -30.2311 C   0  0  0  0  0  0  0  0  0  0  0  0
   28.7374   -8.5637  -30.4077 N   0  0  0  0  0  0  0  0  0  0  0  0
   27.4352   -9.1788  -30.6446 C   0  0  0  0  0  0  0  0  0  0  0  0
   29.3854   -9.1788  -29.2407 C   0  0  0  0  0  0  0  0  0  0  0  0
   28.6494   -8.8756  -27.9327 C   0  0  0  0  0  0  0  0  0  0  0  0
   23.6044   -3.1666  -16.2899 O   0  0  0  0  0  0  0  0  0  0  0  0
   24.5104   -2.1168  -16.4380 C   0  0  0  0  0  0  0  0  0  0  0  0
   25.3812   -6.8124  -17.0886 O   0  0  0  0  0  0  0  0  0  0  0  0
   25.0748   -8.1287  -16.7397 C   0  0  0  0  0  0  0  0  0  0  0  0
   25.3269   -8.5693  -15.5864 O   0  0  0  0  0  0  0  0  0  0  0  0
   24.4413   -9.0214  -17.7433 C   0  0  0  0  0  0  0  0  0  0  0  0
 51 52  1  0  0  0
 52 53  2  0  0  0
 53  1  1  0  0  0
  1  2  2  0  0  0
  2  3  1  0  0  0
  2  4  1  0  0  0
  4  5  2  0  0  0
  5  6  1  0  0  0
  6  7  2  0  0  0
  6  8  1  0  0  0
  8  9  1  0  0  0
  8 10  1  0  0  0
 10 11  1  0  0  0
 11 12  2  0  0  0
 12 13  1  0  0  0
 13 14  1  0  0  0
 14 15  1  0  0  0
 15 63  1  0  0  0
 63 64  1  0  0  0
 64 65  2  0  0  0
 64 66  1  0  0  0
 15 16  1  0  0  0
 16 17  1  0  0  0
 17 18  1  0  0  0
 18 19  1  0  0  0
 19 20  1  0  0  0
 20 21  1  0  0  0
 21 22  2  0  0  0
 22 23  1  0  0  0
 23 24  2  0  0  0
 24 25  1  0  0  0
 25 26  2  0  0  0
 25 27  1  0  0  0
 27 28  1  0  0  0
 28 29  2  0  0  0
 29 30  1  0  0  0
 30 31  2  0  0  0
 31 32  1  0  0  0
 32 33  2  0  0  0
 33 34  1  0  0  0
 32 35  1  0  0  0
 31 36  1  0  0  0
 29 37  1  0  0  0
 24 38  1  0  0  0
 20 39  1  0  0  0
 19 40  1  0  0  0
 18 41  1  0  0  0
 17 42  1  0  0  0
 16 43  1  0  0  0
 14 44  1  0  0  0
 13 61  1  0  0  0
 61 62  1  0  0  0
 52 54  1  0  0  0
 54 55  1  0  0  0
 55 56  1  0  0  0
 56 57  1  0  0  0
 57 58  1  0  0  0
 57 59  1  0  0  0
 59 60  1  0  0  0
 28  1  1  0  0  0
 60 54  1  0  0  0
 30  4  1  0  0  0
 33  5  1  0  0  0
 34  8  1  0  0  0
  3 45  1  0  0  0
 27 46  1  0  0  0
 36 47  1  0  0  0
 37 48  1  0  0  0
 40 49  1  0  0  0
 42 50  1  0  0  0
M  CHG 1  51  -1
M  CHG 1  52   1
M  END
>  <minimizedAffinity>
205.19073

>  <minimizedRMSD>
6.86723

$$$$
MCULE-2008603251 CHEMBL110309 MolPort-003-946-601 PubChem-3879


 77 85  0  0  0  0  0  0  0  0999 V2000
   24.2069   -2.0215  -24.2268 C   0  0  0  0  0  0  0  0  0  0  0  0
   25.5951   -2.1544  -24.8658 C   0  0  0  0  0  0  0  0  0  0  0  0
   25.6732   -1.5131  -26.1242 O   0  0  0  0  0  0  0  0  0  0  0  0
   24.8760   -2.2111  -27.0608 C   0  0  0  0  0  0  0  0  0  0  0  0
   25.4703   -3.5998  -27.3346 C   0  0  0  0  0  0  0  0  0  0  0  0
   25.4512   -4.4088  -26.0424 C   0  0  0  0  0  0  0  0  0  0  0  0
   24.1360   -4.7368  -25.7031 O   0  0  0  0  0  0  0  0  0  0  0  0
   26.1232   -3.6012  -24.9183 C   0  0  0  0  0  0  0  0  0  0  0  0
   23.6235   -3.9237  -25.5719 H   0  0  0  0  0  0  0  0  0  0  0  0
   25.9954   -4.2110  -23.6568 O   0  0  0  0  0  0  0  0  0  0  0  0
   26.8636   -5.3192  -23.6191 C   0  0  0  0  0  0  0  0  0  0  0  0
   26.5691   -6.1964  -22.3953 C   0  0  0  0  0  0  0  0  0  0  0  0
   27.0384   -5.5216  -21.1056 C   0  0  0  0  0  0  0  0  0  0  0  0
   26.1710   -4.4789  -20.7634 O   0  0  0  0  0  0  0  0  0  0  0  0
   28.4790   -5.0052  -21.2681 C   0  0  0  0  0  0  0  0  0  0  0  0
   28.5509   -4.1591  -22.5470 C   0  0  0  0  0  0  0  0  0  0  0  0
   29.9373   -3.5745  -22.7436 C   0  0  0  0  0  0  0  0  0  0  0  0
   28.2298   -4.9463  -23.6726 O   0  0  0  0  0  0  0  0  0  0  0  0
   26.1673   -3.8158  -21.4714 H   0  0  0  0  0  0  0  0  0  0  0  0
   28.8927   -4.2498  -20.1533 O   0  0  0  0  0  0  0  0  0  0  0  0
   29.1086   -5.1483  -19.0918 C   0  0  0  0  0  0  0  0  0  0  0  0
   29.0354   -4.4450  -17.7346 C   0  0  0  0  0  0  0  0  0  0  0  0
   30.2777   -3.5929  -17.4883 C   0  0  0  0  0  0  0  0  0  0  0  0
   31.5406   -4.4135  -17.7266 C   0  0  0  0  0  0  0  0  0  0  0  0
   31.4718   -5.1721  -19.0647 C   0  0  0  0  0  0  0  0  0  0  0  0
   31.8370   -4.3054  -20.2583 C   0  0  0  0  0  0  0  0  0  0  0  0
   30.2855   -5.9279  -19.2606 O   0  0  0  0  0  0  0  0  0  0  0  0
   30.2690   -2.4445  -18.3290 O   0  0  0  0  0  0  0  0  0  0  0  0
   30.2519   -1.1518  -17.8114 C   0  0  0  0  0  0  0  0  0  0  0  0
   30.2785    0.0075  -18.7414 C   0  0  0  0  0  0  0  0  0  0  0  0
   30.2214   -0.9545  -16.5676 O   0  0  0  0  0  0  0  0  0  0  0  0
   31.7285   -5.3000  -16.6562 O   0  0  0  0  0  0  0  0  0  0  0  0
   33.1014   -5.5681  -16.6190 C   0  0  0  0  0  0  0  0  0  0  0  0
   33.3082   -6.9444  -16.3971 O   0  0  0  0  0  0  0  0  0  0  0  0
   34.6436   -7.2673  -16.7464 C   0  0  0  0  0  0  0  0  0  0  0  0
   35.7134   -6.2600  -16.2297 C   0  0  0  0  0  0  0  0  0  0  0  0
   36.1894   -5.4433  -17.2638 O   0  0  0  0  0  0  0  0  0  0  0  0
   35.1342   -5.3731  -15.1184 C   0  0  0  0  0  0  0  0  0  0  0  0
   34.9702   -6.1233  -13.9515 O   0  0  0  0  0  0  0  0  0  0  0  0
   33.7909   -4.7448  -15.5197 C   0  0  0  0  0  0  0  0  0  0  0  0
   34.0079   -3.4419  -15.9865 O   0  0  0  0  0  0  0  0  0  0  0  0
   35.4581   -4.9162  -17.6221 H   0  0  0  0  0  0  0  0  0  0  0  0
   34.3401   -6.8423  -14.1152 H   0  0  0  0  0  0  0  0  0  0  0  0
   34.5843   -3.4696  -16.7662 H   0  0  0  0  0  0  0  0  0  0  0  0
   34.7622   -7.6274  -18.2241 C   0  0  0  0  0  0  0  0  0  0  0  0
   35.9721   -8.2801  -18.4635 O   0  0  0  0  0  0  0  0  0  0  0  0
   36.7079   -7.6958  -18.2223 H   0  0  0  0  0  0  0  0  0  0  0  0
   24.7806   -1.4511  -28.2381 O   0  0  0  0  0  0  0  0  0  0  0  0
   23.6504   -1.8944  -28.9457 C   0  0  0  0  0  0  0  0  0  0  0  0
   22.3433   -1.4175  -28.2995 C   0  0  0  0  0  0  0  0  0  0  0  0
   22.1090    0.0707  -28.5264 C   0  0  0  0  0  0  0  0  0  0  0  0
   22.1907    0.5042  -30.0057 C   0  0  0  0  0  0  0  0  0  0  0  0
   23.2794    1.5634  -30.0852 C   0  0  0  0  0  0  0  0  0  0  0  0
   22.6142   -0.6496  -30.9575 C   0  0  0  0  0  0  0  0  0  0  0  0
   21.4691   -1.5809  -31.3255 C   0  0  0  0  0  0  0  0  0  0  0  0
   20.3882   -0.7985  -32.0464 C   0  0  0  0  0  0  0  0  0  0  0  0
   19.7976    0.2874  -31.1457 C   0  0  0  0  0  0  0  0  0  0  0  0
   20.8751    1.1878  -30.4775 C   0  0  0  0  0  0  0  0  0  0  0  0
   20.2891    2.2229  -29.4799 C   0  0  0  0  0  0  0  0  0  0  0  0
   19.1927    1.6441  -28.5594 C   0  0  0  0  0  0  0  0  0  0  0  0
   18.6449    2.6714  -27.7887 O   0  0  0  0  0  0  0  0  0  0  0  0
   18.1130    0.9391  -29.4039 C   0  0  0  0  0  0  0  0  0  0  0  0
   17.5034    1.9274  -30.4257 C   0  0  0  0  0  0  0  0  0  0  0  0
   17.0018    0.2025  -28.6353 C   0  0  0  0  0  0  0  0  0  0  0  0
   16.5071   -0.8759  -29.6122 C   0  0  0  0  0  0  0  0  0  0  0  0
   17.6045   -1.0282  -30.6753 C   0  0  0  0  0  0  0  0  0  0  0  0
   18.7809   -0.2374  -30.1186 C   0  0  0  0  0  0  0  0  0  0  0  0
   19.4399   -1.0618  -29.1939 O   0  0  0  0  0  0  0  0  0  0  0  0
   23.7908   -1.4692  -30.4142 C   0  0  0  0  0  0  0  0  0  0  0  0
   18.2537    3.3401  -28.3724 H   0  0  0  0  0  0  0  0  0  0  0  0
   18.8008   -1.3944  -28.5444 H   0  0  0  0  0  0  0  0  0  0  0  0
   15.8560    0.9827  -28.0325 C   0  0  0  0  0  0  0  0  0  0  0  0
   15.6777    2.3020  -28.1095 C   0  0  0  0  0  0  0  0  0  0  0  0
   14.4520    2.5621  -27.3854 C   0  0  0  0  0  0  0  0  0  0  0  0
   13.9193    3.6948  -27.2472 O   0  0  0  0  0  0  0  0  0  0  0  0
   13.9159    1.3967  -26.8762 O   0  0  0  0  0  0  0  0  0  0  0  0
   14.7680    0.3168  -27.2309 C   0  0  0  0  0  0  0  0  0  0  0  0
  1  2  1  0  0  0
  2  3  1  0  0  0
  3  4  1  0  0  0
  4  5  1  0  0  0
  5  6  1  0  0  0
  6  7  1  0  0  0
  6  8  1  0  0  0
  8 10  1  0  0  0
 10 11  1  0  0  0
 11 12  1  0  0  0
 12 13  1  0  0  0
 13 14  1  0  0  0
 13 15  1  0  0  0
 15 20  1  0  0  0
 20 21  1  0  0  0
 21 22  1  0  0  0
 22 23  1  0  0  0
 23 28  1  0  0  0
 28 29  1  0  0  0
 29 30  1  0  0  0
 29 31  2  0  0  0
 23 24  1  0  0  0
 24 32  1  0  0  0
 32 33  1  0  0  0
 33 34  1  0  0  0
 34 35  1  0  0  0
 35 45  1  0  0  0
 45 46  1  0  0  0
 35 36  1  0  0  0
 36 37  1  0  0  0
 36 38  1  0  0  0
 38 39  1  0  0  0
 38 40  1  0  0  0
 40 41  1  0  0  0
 24 25  1  0  0  0
 25 26  1  0  0  0
 25 27  1  0  0  0
 15 16  1  0  0  0
 16 17  1  0  0  0
 16 18  1  0  0  0
  4 48  1  0  0  0
 48 49  1  0  0  0
 49 50  1  0  0  0
 50 51  1  0  0  0
 51 52  1  0  0  0
 52 53  1  0  0  0
 52 54  1  0  0  0
 54 55  1  0  0  0
 55 56  1  0  0  0
 56 57  1  0  0  0
 57 58  1  0  0  0
 58 59  1  0  0  0
 59 60  1  0  0  0
 60 61  1  0  0  0
 60 62  1  0  0  0
 62 63  1  0  0  0
 62 64  1  0  0  0
 64 65  1  0  0  0
 65 66  1  0  0  0
 66 67  1  0  0  0
 67 68  1  0  0  0
 64 72  1  0  0  0
 72 73  2  0  0  0
 73 74  1  0  0  0
 74 75  2  0  0  0
 74 76  1  0  0  0
 76 77  1  0  0  0
 54 69  1  0  0  0
  8  2  1  0  0  0
 18 11  1  0  0  0
 69 49  1  0  0  0
 27 21  1  0  0  0
 58 52  1  0  0  0
 67 62  1  0  0  0
 77 72  1  0  0  0
 40 33  1  0  0  0
 67 57  1  0  0  0
  7  9  1  0  0  0
 14 19  1  0  0  0
 46 47  1  0  0  0
 37 42  1  0  0  0
 39 43  1  0  0  0
 41 44  1  0  0  0
 61 70  1  0  0  0
 68 71  1  0  0  0
M  END
>  <minimizedAffinity>
208.65380

>  <minimizedRMSD>
1.00852

$$$$
MCULE-8295886704 CHEMBL490450 LN04601464 MolPort-035-706-440 PubChem-14466231


 64 70  0  0  0  0  0  0  0  0999 V2000
   22.7039   -3.2223  -20.3521 C   0  0  0  0  0  0  0  0  0  0  0  0
   23.7683   -3.4486  -21.4098 C   0  0  0  0  0  0  0  0  0  0  0  0
   24.1577   -4.9132  -21.4051 C   0  0  0  0  0  0  0  0  0  0  0  0
   25.0699   -5.2357  -22.5866 C   0  0  0  0  0  0  0  0  0  0  0  0
   26.0530   -4.1133  -22.9951 C   0  0  0  0  0  0  0  0  0  0  0  0
   27.4078   -4.7437  -23.3255 C   0  0  0  0  0  0  0  0  0  0  0  0
   28.0025   -5.4636  -22.1133 C   0  0  0  0  0  0  0  0  0  0  0  0
   28.0734   -4.6240  -20.8082 C   0  0  0  0  0  0  0  0  0  0  0  0
   27.4587   -3.2271  -21.0019 C   0  0  0  0  0  0  0  0  0  0  0  0
   27.9268   -2.1472  -20.3473 C   0  0  0  0  0  0  0  0  0  0  0  0
   29.1356   -2.1546  -19.4521 C   0  0  0  0  0  0  0  0  0  0  0  0
   29.6181   -3.5715  -19.1052 C   0  0  0  0  0  0  0  0  0  0  0  0
   30.9452   -3.5758  -18.3040 C   0  0  0  0  0  0  0  0  0  0  0  0
   32.0374   -2.8326  -19.0806 C   0  0  0  0  0  0  0  0  0  0  0  0
   30.7091   -2.8641  -16.9658 C   0  0  0  0  0  0  0  0  0  0  0  0
   31.9268   -2.9549  -16.0509 C   0  0  0  0  0  0  0  0  0  0  0  0
   32.2464   -4.4160  -15.7434 C   0  0  0  0  0  0  0  0  0  0  0  0
   32.5196   -5.2346  -17.0238 C   0  0  0  0  0  0  0  0  0  0  0  0
   32.5922   -6.7043  -16.6406 C   0  0  0  0  0  0  0  0  0  0  0  0
   33.8568   -4.8431  -17.6471 C   0  0  0  0  0  0  0  0  0  0  0  0
   31.3506   -5.0429  -18.0217 C   0  0  0  0  0  0  0  0  0  0  0  0
   31.4866   -5.8487  -19.3114 C   0  0  0  0  0  0  0  0  0  0  0  0
   30.1286   -5.9081  -19.9967 C   0  0  0  0  0  0  0  0  0  0  0  0
   29.5703   -4.5122  -20.3457 C   0  0  0  0  0  0  0  0  0  0  0  0
   30.4310   -3.9393  -21.4813 C   0  0  0  0  0  0  0  0  0  0  0  0
   26.2567   -3.0266  -21.8973 C   0  0  0  0  0  0  0  0  0  0  0  0
   25.0044   -2.6040  -21.1037 C   0  0  0  0  0  0  0  0  0  0  0  0
   24.7230   -1.1312  -21.3517 C   0  0  0  0  0  0  0  0  0  0  0  0
   27.2496   -5.3465  -19.7490 C   0  0  0  0  0  0  0  0  0  0  0  0
   26.5283   -4.6297  -18.7991 O   0  0  0  0  0  0  0  0  0  0  0  0
   27.2382   -6.6056  -19.6921 O   0  0  0  0  0  0  0  0  0  0  0  0
   26.5234   -3.6930  -18.8233 H   0  0  0  0  0  0  0  0  0  0  0  0
   25.5297   -3.4715  -24.2572 C   0  0  0  0  0  0  0  0  0  0  0  0
   25.3147   -4.1840  -25.2778 O   0  0  0  0  0  0  0  0  0  0  0  0
   25.2838   -2.0946  -24.3017 O   0  0  0  0  0  0  0  0  0  0  0  0
   24.8258   -1.4343  -25.4719 C   0  0  0  0  0  0  0  0  0  0  0  0
   25.8411   -1.4225  -26.4426 O   0  0  0  0  0  0  0  0  0  0  0  0
   25.2158   -1.0268  -27.6376 C   0  0  0  0  0  0  0  0  0  0  0  0
   24.8129    0.4571  -27.5916 C   0  0  0  0  0  0  0  0  0  0  0  0
   23.5453    0.6103  -28.1523 O   0  0  0  0  0  0  0  0  0  0  0  0
   24.8210    1.0239  -26.1659 C   0  0  0  0  0  0  0  0  0  0  0  0
   26.0969    1.4928  -25.8629 O   0  0  0  0  0  0  0  0  0  0  0  0
   24.3935   -0.0068  -25.1108 C   0  0  0  0  0  0  0  0  0  0  0  0
   23.0097    0.0302  -24.9430 O   0  0  0  0  0  0  0  0  0  0  0  0
   22.8988    0.1078  -27.6322 H   0  0  0  0  0  0  0  0  0  0  0  0
   26.7277    0.7566  -25.8938 H   0  0  0  0  0  0  0  0  0  0  0  0
   22.5764   -0.2113  -25.7766 H   0  0  0  0  0  0  0  0  0  0  0  0
   26.1419   -1.2691  -28.8146 C   0  0  0  0  0  0  0  0  0  0  0  0
   26.3900   -2.6360  -28.9498 O   0  0  0  0  0  0  0  0  0  0  0  0
   26.8096   -2.9699  -28.1415 H   0  0  0  0  0  0  0  0  0  0  0  0
   33.3249   -4.4790  -14.8510 O   0  0  0  0  0  0  0  0  0  0  0  0
   32.8215   -5.1096  -13.7089 C   0  0  0  0  0  0  0  0  0  0  0  0
   32.4410   -4.1484  -12.7565 O   0  0  0  0  0  0  0  0  0  0  0  0
   31.6615   -4.8443  -11.8170 C   0  0  0  0  0  0  0  0  0  0  0  0
   30.9476   -3.8621  -10.9121 C   0  0  0  0  0  0  0  0  0  0  0  0
   32.5186   -5.8067  -10.9774 C   0  0  0  0  0  0  0  0  0  0  0  0
   31.8448   -7.0209  -10.8356 O   0  0  0  0  0  0  0  0  0  0  0  0
   33.9023   -6.0524  -11.5979 C   0  0  0  0  0  0  0  0  0  0  0  0
   34.7902   -5.0712  -11.1566 O   0  0  0  0  0  0  0  0  0  0  0  0
   33.8777   -6.0651  -13.1341 C   0  0  0  0  0  0  0  0  0  0  0  0
   33.6251   -7.3604  -13.5864 O   0  0  0  0  0  0  0  0  0  0  0  0
   31.7106   -7.4202  -11.7094 H   0  0  0  0  0  0  0  0  0  0  0  0
   34.4839   -4.2004  -11.4545 H   0  0  0  0  0  0  0  0  0  0  0  0
   32.7542   -7.6488  -13.2713 H   0  0  0  0  0  0  0  0  0  0  0  0
  2  1  1  0  0  0
  2  3  1  0  0  0
  3  4  1  0  0  0
  4  5  1  0  0  0
  5  6  1  0  0  0
  6  7  1  0  0  0
  7  8  1  0  0  0
  8 29  1  0  0  0
 29 30  1  0  0  0
 29 31  2  0  0  0
  8  9  1  0  0  0
  9 10  2  0  0  0
 10 11  1  0  0  0
 12 11  1  0  0  0
 12 13  1  0  0  0
 13 14  1  0  0  0
 13 15  1  0  0  0
 15 16  1  0  0  0
 16 17  1  0  0  0
 17 51  1  0  0  0
 52 51  1  0  0  0
 52 53  1  0  0  0
 53 54  1  0  0  0
 54 55  1  0  0  0
 54 56  1  0  0  0
 56 57  1  0  0  0
 56 58  1  0  0  0
 58 59  1  0  0  0
 58 60  1  0  0  0
 60 61  1  0  0  0
 17 18  1  0  0  0
 18 19  1  0  0  0
 18 20  1  0  0  0
 21 18  1  0  0  0
 21 22  1  0  0  0
 22 23  1  0  0  0
 23 24  1  0  0  0
 24 25  1  0  0  0
 26  9  1  0  0  0
 26 27  1  0  0  0
 27 28  1  0  0  0
  5 33  1  0  0  0
 33 34  2  0  0  0
 33 35  1  0  0  0
 36 35  1  0  0  0
 36 37  1  0  0  0
 37 38  1  0  0  0
 38 48  1  0  0  0
 48 49  1  0  0  0
 38 39  1  0  0  0
 39 40  1  0  0  0
 39 41  1  0  0  0
 41 42  1  0  0  0
 41 43  1  0  0  0
 43 44  1  0  0  0
 27  2  1  0  0  0
 43 36  1  0  0  0
 26  5  1  0  0  0
 24  8  1  0  0  0
 24 12  1  0  0  0
 21 13  1  0  0  0
 60 52  1  0  0  0
 30 32  1  0  0  0
 57 62  1  0  0  0
 59 63  1  0  0  0
 61 64  1  0  0  0
 49 50  1  0  0  0
 40 45  1  0  0  0
 42 46  1  0  0  0
 44 47  1  0  0  0
M  END
>  <minimizedAffinity>
211.74167

>  <minimizedRMSD>
1.78909

$$$$
MCULE-5879511087 MolPort-005-945-566 PubChem-45360118


114124  0  0  0  0  0  0  0  0999 V2000
   24.1010   -2.7489  -27.2133 C   0  0  0  0  0  0  0  0  0  0  0  0
   23.2009   -3.7039  -26.4295 C   0  0  0  0  0  0  0  0  0  0  0  0
   23.4300   -5.1674  -26.8270 C   0  0  0  0  0  0  0  0  0  0  0  0
   24.7243   -5.3554  -27.3479 O   0  0  0  0  0  0  0  0  0  0  0  0
   24.7727   -4.7729  -28.6464 C   0  0  0  0  0  0  0  0  0  0  0  0
   24.4123   -3.2819  -28.6334 C   0  0  0  0  0  0  0  0  0  0  0  0
   25.4500   -2.5636  -29.2109 O   0  0  0  0  0  0  0  0  0  0  0  0
   21.8532   -3.3620  -26.6226 O   0  0  0  0  0  0  0  0  0  0  0  0
   26.2581   -2.6866  -28.6888 H   0  0  0  0  0  0  0  0  0  0  0  0
   21.6282   -3.4518  -27.5618 H   0  0  0  0  0  0  0  0  0  0  0  0
   23.2128   -6.0703  -25.6680 C   0  0  0  0  0  0  0  0  0  0  0  0
   22.3429   -6.9681  -25.7385 O   0  0  0  0  0  0  0  0  0  0  0  0
   24.0321   -5.9921  -24.5460 O   0  0  0  0  0  0  0  0  0  0  0  0
   24.6847   -5.3221  -24.4882 H   0  0  0  0  0  0  0  0  0  0  0  0
   23.9597   -5.4528  -29.5883 O   0  0  0  0  0  0  0  0  0  0  0  0
   24.3878   -6.7930  -29.6221 C   0  0  0  0  0  0  0  0  0  0  0  0
   23.1950   -7.7068  -29.3282 C   0  0  0  0  0  0  0  0  0  0  0  0
   22.1687   -7.6350  -30.4598 C   0  0  0  0  0  0  0  0  0  0  0  0
   22.7803   -8.1005  -31.7852 C   0  0  0  0  0  0  0  0  0  0  0  0
   24.0476   -7.2503  -32.1026 C   0  0  0  0  0  0  0  0  0  0  0  0
   25.0898   -7.1531  -30.9566 C   0  0  0  0  0  0  0  0  0  0  0  0
   25.8211   -8.4903  -30.7852 C   0  0  0  0  0  0  0  0  0  0  0  0
   24.6522   -7.5965  -33.4663 C   0  0  0  0  0  0  0  0  0  0  0  0
   23.6263   -7.4065  -34.5866 C   0  0  0  0  0  0  0  0  0  0  0  0
   22.3577   -8.2512  -34.3638 C   0  0  0  0  0  0  0  0  0  0  0  0
   21.7528   -7.9229  -32.9541 C   0  0  0  0  0  0  0  0  0  0  0  0
   21.1205   -6.5027  -32.9018 C   0  0  0  0  0  0  0  0  0  0  0  0
   20.6637   -5.9178  -34.2084 C   0  0  0  0  0  0  0  0  0  0  0  0
   20.7736   -6.5262  -35.3968 C   0  0  0  0  0  0  0  0  0  0  0  0
   21.2975   -7.9675  -35.4809 C   0  0  0  0  0  0  0  0  0  0  0  0
   21.8905   -8.3087  -36.8720 C   0  0  0  0  0  0  0  0  0  0  0  0
   22.0757   -7.1018  -37.7751 C   0  0  0  0  0  0  0  0  0  0  0  0
   20.7413   -6.3673  -38.0064 C   0  0  0  0  0  0  0  0  0  0  0  0
   20.1844   -5.8585  -36.6335 C   0  0  0  0  0  0  0  0  0  0  0  0
   20.0983   -4.3224  -36.5176 C   0  0  0  0  0  0  0  0  0  0  0  0
   19.3192   -3.7227  -37.6953 C   0  0  0  0  0  0  0  0  0  0  0  0
   19.8018   -4.2410  -39.0663 C   0  0  0  0  0  0  0  0  0  0  0  0
   21.0098   -5.1899  -38.9618 C   0  0  0  0  0  0  0  0  0  0  0  0
   19.5004   -2.2187  -37.6542 C   0  0  0  0  0  0  0  0  0  0  0  0
   17.8330   -4.0389  -37.5538 C   0  0  0  0  0  0  0  0  0  0  0  0
   22.6706   -7.5108  -38.9791 O   0  0  0  0  0  0  0  0  0  0  0  0
   20.0863   -8.8919  -35.2943 C   0  0  0  0  0  0  0  0  0  0  0  0
   22.7491   -9.7226  -34.4541 C   0  0  0  0  0  0  0  0  0  0  0  0
   23.1081   -9.5884  -31.6285 C   0  0  0  0  0  0  0  0  0  0  0  0
   22.0924   -8.1494  -39.4249 H   0  0  0  0  0  0  0  0  0  0  0  0
   26.1303   -6.0781  -31.3266 C   0  0  0  0  0  0  0  0  0  0  0  0
   27.1331   -5.9832  -30.3600 O   0  0  0  0  0  0  0  0  0  0  0  0
   26.7398   -5.7324  -29.5095 H   0  0  0  0  0  0  0  0  0  0  0  0
   19.7260   -7.2983  -38.6426 C   0  0  0  0  0  0  0  0  0  0  0  0
   20.0371   -7.9653  -39.6690 O   0  0  0  0  0  0  0  0  0  0  0  0
   18.4381   -7.4086  -38.1085 O   0  0  0  0  0  0  0  0  0  0  0  0
   17.4292   -8.2041  -38.7211 C   0  0  0  0  0  0  0  0  0  0  0  0
   16.8885   -7.5022  -39.9853 C   0  0  0  0  0  0  0  0  0  0  0  0
   15.7901   -8.3624  -40.6302 C   0  0  0  0  0  0  0  0  0  0  0  0
   14.8333   -8.9757  -39.5873 C   0  0  0  0  0  0  0  0  0  0  0  0
   15.6053   -9.4738  -38.3574 C   0  0  0  0  0  0  0  0  0  0  0  0
   16.3841   -8.4391  -37.8055 O   0  0  0  0  0  0  0  0  0  0  0  0
   13.8634   -8.0444  -39.2039 O   0  0  0  0  0  0  0  0  0  0  0  0
   16.3699   -9.3882  -41.3748 O   0  0  0  0  0  0  0  0  0  0  0  0
   16.3686   -6.2442  -39.6654 O   0  0  0  0  0  0  0  0  0  0  0  0
   14.2946   -7.2795  -38.7918 H   0  0  0  0  0  0  0  0  0  0  0  0
   16.8854   -9.9625  -40.7872 H   0  0  0  0  0  0  0  0  0  0  0  0
   15.6344   -6.3473  -39.0400 H   0  0  0  0  0  0  0  0  0  0  0  0
   25.2637   -2.5257  -26.4584 O   0  0  0  0  0  0  0  0  0  0  0  0
   24.3990   -1.6125  -23.8572 C   0  0  0  0  0  0  0  0  0  0  0  0
   24.9183   -0.3493  -24.5134 C   0  0  0  0  0  0  0  0  0  0  0  0
   26.3558   -0.0018  -24.1096 C   0  0  0  0  0  0  0  0  0  0  0  0
   27.3757   -0.8686  -24.8485 C   0  0  0  0  0  0  0  0  0  0  0  0
   27.0652   -0.9097  -26.3445 C   0  0  0  0  0  0  0  0  0  0  0  0
   25.5731   -1.1698  -26.6230 C   0  0  0  0  0  0  0  0  0  0  0  0
   24.6855   -0.3211  -25.9107 O   0  0  0  0  0  0  0  0  0  0  0  0
   27.4647    0.2897  -26.9407 O   0  0  0  0  0  0  0  0  0  0  0  0
   26.5914    1.3450  -24.3686 O   0  0  0  0  0  0  0  0  0  0  0  0
   26.9656    1.0255  -26.5529 H   0  0  0  0  0  0  0  0  0  0  0  0
   26.4869    1.5148  -25.3179 H   0  0  0  0  0  0  0  0  0  0  0  0
   27.3805   -2.1762  -24.3407 O   0  0  0  0  0  0  0  0  0  0  0  0
   28.2271   -2.1412  -23.2156 C   0  0  0  0  0  0  0  0  0  0  0  0
   29.4108   -3.1442  -23.3400 C   0  0  0  0  0  0  0  0  0  0  0  0
   29.7079   -3.8605  -22.0054 C   0  0  0  0  0  0  0  0  0  0  0  0
   28.4418   -4.3981  -21.3168 C   0  0  0  0  0  0  0  0  0  0  0  0
   27.2023   -3.6734  -21.8544 C   0  0  0  0  0  0  0  0  0  0  0  0
   27.4718   -2.2976  -22.0243 O   0  0  0  0  0  0  0  0  0  0  0  0
   28.5581   -4.2115  -19.9394 O   0  0  0  0  0  0  0  0  0  0  0  0
   29.1814   -4.0824  -24.3525 O   0  0  0  0  0  0  0  0  0  0  0  0
   28.6554   -3.2655  -19.7484 H   0  0  0  0  0  0  0  0  0  0  0  0
   28.4013   -4.6141  -24.1299 H   0  0  0  0  0  0  0  0  0  0  0  0
   25.9415   -3.8923  -21.0382 C   0  0  0  0  0  0  0  0  0  0  0  0
   25.9599   -3.1003  -19.8881 O   0  0  0  0  0  0  0  0  0  0  0  0
   26.7260   -3.3392  -19.3432 H   0  0  0  0  0  0  0  0  0  0  0  0
   30.6511   -4.8847  -22.2199 O   0  0  0  0  0  0  0  0  0  0  0  0
   31.6694   -4.8456  -21.2311 C   0  0  0  0  0  0  0  0  0  0  0  0
   31.4276   -5.8585  -20.0929 C   0  0  0  0  0  0  0  0  0  0  0  0
   32.3367   -5.4967  -18.9221 C   0  0  0  0  0  0  0  0  0  0  0  0
   32.1176   -4.0513  -18.4492 C   0  0  0  0  0  0  0  0  0  0  0  0
   31.5222   -3.2069  -19.5886 C   0  0  0  0  0  0  0  0  0  0  0  0
   32.0746   -3.5313  -20.8464 O   0  0  0  0  0  0  0  0  0  0  0  0
   31.5904   -1.7149  -19.3490 C   0  0  0  0  0  0  0  0  0  0  0  0
   32.1397   -6.3763  -17.8600 O   0  0  0  0  0  0  0  0  0  0  0  0
   31.6987   -7.1533  -20.5411 O   0  0  0  0  0  0  0  0  0  0  0  0
   31.2256   -6.3023  -17.5441 H   0  0  0  0  0  0  0  0  0  0  0  0
   32.6225   -7.2080  -20.8318 H   0  0  0  0  0  0  0  0  0  0  0  0
   33.3299   -3.5106  -18.0142 O   0  0  0  0  0  0  0  0  0  0  0  0
   33.2836   -3.5852  -16.6131 C   0  0  0  0  0  0  0  0  0  0  0  0
   32.9183   -2.2147  -15.9406 C   0  0  0  0  0  0  0  0  0  0  0  0
   33.7105   -2.0024  -14.6529 C   0  0  0  0  0  0  0  0  0  0  0  0
   35.2022   -2.3124  -14.8237 C   0  0  0  0  0  0  0  0  0  0  0  0
   35.4594   -3.2826  -15.9813 C   0  0  0  0  0  0  0  0  0  0  0  0
   34.4251   -4.2323  -16.0824 O   0  0  0  0  0  0  0  0  0  0  0  0
   35.9202   -1.1330  -15.0605 O   0  0  0  0  0  0  0  0  0  0  0  0
   33.1944   -2.7879  -13.6274 O   0  0  0  0  0  0  0  0  0  0  0  0
   33.1703   -1.1560  -16.8131 O   0  0  0  0  0  0  0  0  0  0  0  0
   35.6133   -0.7281  -15.8868 H   0  0  0  0  0  0  0  0  0  0  0  0
   33.2845   -3.7250  -13.8612 H   0  0  0  0  0  0  0  0  0  0  0  0
   34.1163   -1.1310  -17.0263 H   0  0  0  0  0  0  0  0  0  0  0  0
 66 65  1  0  0  0
 66 67  1  0  0  0
 67 68  1  0  0  0
 67 73  1  0  0  0
 68 69  1  0  0  0
 68 76  1  0  0  0
 69 70  1  0  0  0
 69 72  1  0  0  0
 70 71  1  0  0  0
 70 64  1  0  0  0
 71 66  1  0  0  0
  1 64  1  0  0  0
  1  2  1  0  0  0
  2  3  1  0  0  0
  2  8  1  0  0  0
  3  4  1  0  0  0
  3 11  1  0  0  0
  4  5  1  0  0  0
  5  6  1  0  0  0
  5 15  1  0  0  0
  6  7  1  0  0  0
  6  1  1  0  0  0
 16 15  1  0  0  0
 16 17  1  0  0  0
 17 18  1  0  0  0
 18 19  1  0  0  0
 19 20  1  0  0  0
 19 44  1  0  0  0
 20 21  1  0  0  0
 20 23  1  0  0  0
 21 22  1  0  0  0
 21 46  1  0  0  0
 21 16  1  0  0  0
 46 47  1  0  0  0
 23 24  1  0  0  0
 24 25  1  0  0  0
 25 26  1  0  0  0
 25 43  1  0  0  0
 26 27  1  0  0  0
 26 19  1  0  0  0
 27 28  1  0  0  0
 28 29  2  0  0  0
 29 30  1  0  0  0
 30 31  1  0  0  0
 30 42  1  0  0  0
 30 25  1  0  0  0
 31 32  1  0  0  0
 32 33  1  0  0  0
 32 41  1  0  0  0
 33 34  1  0  0  0
 33 49  1  0  0  0
 34 35  1  0  0  0
 34 29  1  0  0  0
 35 36  1  0  0  0
 36 37  1  0  0  0
 36 39  1  0  0  0
 36 40  1  0  0  0
 37 38  1  0  0  0
 38 33  1  0  0  0
 49 50  2  0  0  0
 49 51  1  0  0  0
 52 51  1  0  0  0
 52 53  1  0  0  0
 53 54  1  0  0  0
 53 60  1  0  0  0
 54 55  1  0  0  0
 54 59  1  0  0  0
 55 56  1  0  0  0
 55 58  1  0  0  0
 56 57  1  0  0  0
 57 52  1  0  0  0
 11 12  2  0  0  0
 11 13  1  0  0  0
 77 76  1  0  0  0
 77 78  1  0  0  0
 78 79  1  0  0  0
 78 84  1  0  0  0
 79 80  1  0  0  0
 79 90  1  0  0  0
 80 81  1  0  0  0
 80 83  1  0  0  0
 81 82  1  0  0  0
 81 87  1  0  0  0
 82 77  1  0  0  0
 87 88  1  0  0  0
 91 90  1  0  0  0
 91 92  1  0  0  0
 92 93  1  0  0  0
 92 99  1  0  0  0
 93 94  1  0  0  0
 93 98  1  0  0  0
 94 95  1  0  0  0
 94102  1  0  0  0
 95 96  1  0  0  0
 95 97  1  0  0  0
 96 91  1  0  0  0
103102  1  0  0  0
103104  1  0  0  0
104105  1  0  0  0
104111  1  0  0  0
105106  1  0  0  0
105110  1  0  0  0
106107  1  0  0  0
106109  1  0  0  0
107108  1  0  0  0
108103  1  0  0  0
  7  9  1  0  0  0
 47 48  1  0  0  0
 58 61  1  0  0  0
 59 62  1  0  0  0
 60 63  1  0  0  0
 41 45  1  0  0  0
 13 14  1  0  0  0
  8 10  1  0  0  0
 72 74  1  0  0  0
 88 89  1  0  0  0
 83 85  1  0  0  0
109112  1  0  0  0
110113  1  0  0  0
111114  1  0  0  0
 98100  1  0  0  0
 99101  1  0  0  0
 84 86  1  0  0  0
 73 75  1  0  0  0
M  END
>  <minimizedAffinity>
220.07996

>  <minimizedRMSD>
1.33730

$$$$
MCULE-1656634426 PubChem-16129869


 95105  0  0  0  0  0  0  0  0999 V2000
   30.9943   -8.0543  -22.1929 C   0  0  0  0  0  0  0  0  0  0  0  0
   30.1112   -8.5626  -23.3293 C   0  0  0  0  0  0  0  0  0  0  0  0
   30.7504   -8.4924  -24.7238 C   0  0  0  0  0  0  0  0  0  0  0  0
   31.7256   -9.6584  -24.9471 C   0  0  0  0  0  0  0  0  0  0  0  0
   31.1009  -10.9864  -24.4954 C   0  0  0  0  0  0  0  0  0  0  0  0
   30.5494  -10.8120  -23.0817 C   0  0  0  0  0  0  0  0  0  0  0  0
   29.5423   -9.8288  -23.0534 O   0  0  0  0  0  0  0  0  0  0  0  0
   30.0371  -12.0196  -22.6081 O   0  0  0  0  0  0  0  0  0  0  0  0
   30.0858  -11.4064  -25.3987 O   0  0  0  0  0  0  0  0  0  0  0  0
   30.1000  -12.7039  -25.9016 C   0  0  0  0  0  0  0  0  0  0  0  0
   29.8432  -13.6791  -25.1455 O   0  0  0  0  0  0  0  0  0  0  0  0
   30.4928  -12.9460  -27.2920 C   0  0  0  0  0  0  0  0  0  0  0  0
   29.5033  -12.9772  -28.2773 C   0  0  0  0  0  0  0  0  0  0  0  0
   29.8416  -13.2228  -29.6093 C   0  0  0  0  0  0  0  0  0  0  0  0
   31.1774  -13.4425  -29.9650 C   0  0  0  0  0  0  0  0  0  0  0  0
   32.1783  -13.4097  -28.9855 C   0  0  0  0  0  0  0  0  0  0  0  0
   31.8444  -13.1609  -27.6425 C   0  0  0  0  0  0  0  0  0  0  0  0
   32.9139  -13.0699  -26.6185 C   0  0  0  0  0  0  0  0  0  0  0  0
   33.3600  -14.2321  -25.9639 C   0  0  0  0  0  0  0  0  0  0  0  0
   34.3165  -14.1409  -24.9438 C   0  0  0  0  0  0  0  0  0  0  0  0
   34.8263  -12.8920  -24.5707 C   0  0  0  0  0  0  0  0  0  0  0  0
   34.3884  -11.7357  -25.2186 C   0  0  0  0  0  0  0  0  0  0  0  0
   33.4386  -11.8144  -26.2405 C   0  0  0  0  0  0  0  0  0  0  0  0
   33.0060  -10.5800  -26.9135 C   0  0  0  0  0  0  0  0  0  0  0  0
   33.3811  -10.3731  -28.0976 O   0  0  0  0  0  0  0  0  0  0  0  0
   32.1280   -9.6667  -26.3191 O   0  0  0  0  0  0  0  0  0  0  0  0
   35.7716  -12.7938  -23.5578 O   0  0  0  0  0  0  0  0  0  0  0  0
   34.7559  -15.2910  -24.2977 O   0  0  0  0  0  0  0  0  0  0  0  0
   32.8464  -15.4770  -26.3158 O   0  0  0  0  0  0  0  0  0  0  0  0
   33.5044  -13.6164  -29.3512 O   0  0  0  0  0  0  0  0  0  0  0  0
   31.5125  -13.6892  -31.2923 O   0  0  0  0  0  0  0  0  0  0  0  0
   28.8450  -13.2477  -30.5764 O   0  0  0  0  0  0  0  0  0  0  0  0
   29.7178   -8.5248  -25.7084 O   0  0  0  0  0  0  0  0  0  0  0  0
   29.6664   -7.6131  -26.7670 C   0  0  0  0  0  0  0  0  0  0  0  0
   30.6026   -6.7803  -26.9226 O   0  0  0  0  0  0  0  0  0  0  0  0
   28.5489   -7.6461  -27.7435 C   0  0  0  0  0  0  0  0  0  0  0  0
   28.8047   -7.1853  -29.0416 C   0  0  0  0  0  0  0  0  0  0  0  0
   27.8078   -7.1841  -30.0160 C   0  0  0  0  0  0  0  0  0  0  0  0
   26.5255   -7.6399  -29.7053 C   0  0  0  0  0  0  0  0  0  0  0  0
   26.2378   -8.0886  -28.4120 C   0  0  0  0  0  0  0  0  0  0  0  0
   27.2394   -8.0954  -27.4193 C   0  0  0  0  0  0  0  0  0  0  0  0
   26.8874   -8.5303  -26.0442 C   0  0  0  0  0  0  0  0  0  0  0  0
   26.6571   -9.9036  -25.8142 C   0  0  0  0  0  0  0  0  0  0  0  0
   26.5144  -10.3925  -24.5118 C   0  0  0  0  0  0  0  0  0  0  0  0
   26.6597   -9.5335  -23.4218 C   0  0  0  0  0  0  0  0  0  0  0  0
   26.8609   -8.1606  -23.6385 C   0  0  0  0  0  0  0  0  0  0  0  0
   26.9150   -7.6296  -24.9425 C   0  0  0  0  0  0  0  0  0  0  0  0
   27.0479   -6.2216  -25.0632 C   0  0  0  0  0  0  0  0  0  0  0  0
   26.9701   -5.6510  -26.1840 O   0  0  0  0  0  0  0  0  0  0  0  0
   27.2457   -5.4687  -23.9839 O   0  0  0  0  0  0  0  0  0  0  0  0
   27.3162   -5.9668  -22.7537 C   0  0  0  0  0  0  0  0  0  0  0  0
   27.6249   -5.1328  -21.6777 C   0  0  0  0  0  0  0  0  0  0  0  0
   27.8117   -5.6755  -20.4021 C   0  0  0  0  0  0  0  0  0  0  0  0
   27.6467   -7.0588  -20.1804 C   0  0  0  0  0  0  0  0  0  0  0  0
   28.0906   -7.6132  -18.8801 C   0  0  0  0  0  0  0  0  0  0  0  0
   27.2522   -7.4600  -17.7573 C   0  0  0  0  0  0  0  0  0  0  0  0
   27.6282   -7.9856  -16.5169 C   0  0  0  0  0  0  0  0  0  0  0  0
   28.8394   -8.6679  -16.3861 C   0  0  0  0  0  0  0  0  0  0  0  0
   29.6780   -8.8197  -17.4894 C   0  0  0  0  0  0  0  0  0  0  0  0
   29.3326   -8.2974  -18.7440 C   0  0  0  0  0  0  0  0  0  0  0  0
   30.2899   -8.5092  -19.8643 C   0  0  0  0  0  0  0  0  0  0  0  0
   31.2236   -9.3494  -19.7310 O   0  0  0  0  0  0  0  0  0  0  0  0
   30.1760   -7.7901  -21.0580 O   0  0  0  0  0  0  0  0  0  0  0  0
   29.2158   -9.1981  -15.1588 O   0  0  0  0  0  0  0  0  0  0  0  0
   26.7944   -7.8324  -15.4139 O   0  0  0  0  0  0  0  0  0  0  0  0
   26.0357   -6.7929  -17.8753 O   0  0  0  0  0  0  0  0  0  0  0  0
   27.2092   -7.8954  -21.2452 C   0  0  0  0  0  0  0  0  0  0  0  0
   27.1020   -7.3377  -22.5352 C   0  0  0  0  0  0  0  0  0  0  0  0
   26.9214   -9.2789  -21.1105 C   0  0  0  0  0  0  0  0  0  0  0  0
   26.9036   -9.8356  -19.9806 O   0  0  0  0  0  0  0  0  0  0  0  0
   26.6610  -10.0211  -22.1849 O   0  0  0  0  0  0  0  0  0  0  0  0
   28.1991   -4.8398  -19.3580 O   0  0  0  0  0  0  0  0  0  0  0  0
   27.7932   -3.7671  -21.8824 O   0  0  0  0  0  0  0  0  0  0  0  0
   26.2867  -11.7480  -24.3019 O   0  0  0  0  0  0  0  0  0  0  0  0
   26.6102  -10.7969  -26.8815 O   0  0  0  0  0  0  0  0  0  0  0  0
   24.9471   -8.5120  -28.1104 O   0  0  0  0  0  0  0  0  0  0  0  0
   25.5318   -7.6357  -30.6792 O   0  0  0  0  0  0  0  0  0  0  0  0
   28.0979   -6.7242  -31.2940 O   0  0  0  0  0  0  0  0  0  0  0  0
   29.3070  -12.3069  -23.1783 H   0  0  0  0  0  0  0  0  0  0  0  0
   36.0698  -13.5661  -23.1188 H   0  0  0  0  0  0  0  0  0  0  0  0
   34.4151  -16.1275  -24.5468 H   0  0  0  0  0  0  0  0  0  0  0  0
   32.2066  -15.5444  -26.9971 H   0  0  0  0  0  0  0  0  0  0  0  0
   33.7230  -13.7819  -30.2472 H   0  0  0  0  0  0  0  0  0  0  0  0
   30.8436  -13.7113  -31.9480 H   0  0  0  0  0  0  0  0  0  0  0  0
   27.9523  -13.1000  -30.3331 H   0  0  0  0  0  0  0  0  0  0  0  0
   28.6559   -9.0989  -14.4141 H   0  0  0  0  0  0  0  0  0  0  0  0
   25.9815   -7.3746  -15.5011 H   0  0  0  0  0  0  0  0  0  0  0  0
   25.7747   -6.4372  -18.7019 H   0  0  0  0  0  0  0  0  0  0  0  0
   28.3078   -3.9214  -19.5086 H   0  0  0  0  0  0  0  0  0  0  0  0
   27.6684   -3.4025  -22.7365 H   0  0  0  0  0  0  0  0  0  0  0  0
   26.1890  -12.3255  -25.0333 H   0  0  0  0  0  0  0  0  0  0  0  0
   26.7043  -10.4833  -27.7595 H   0  0  0  0  0  0  0  0  0  0  0  0
   24.2850   -8.5056  -28.7733 H   0  0  0  0  0  0  0  0  0  0  0  0
   25.7258   -7.3350  -31.5451 H   0  0  0  0  0  0  0  0  0  0  0  0
   28.9601   -6.4192  -31.4978 H   0  0  0  0  0  0  0  0  0  0  0  0
  1  2  1  0  0  0
  2  3  1  0  0  0
  3  4  1  0  0  0
  4  5  1  0  0  0
  5  6  1  0  0  0
  6  7  1  0  0  0
  6  8  1  0  0  0
  5  9  1  0  0  0
  9 10  1  0  0  0
 10 11  2  0  0  0
 10 12  1  0  0  0
 12 13  2  0  0  0
 13 14  1  0  0  0
 14 15  2  0  0  0
 15 16  1  0  0  0
 16 17  2  0  0  0
 17 18  1  0  0  0
 18 19  2  0  0  0
 19 20  1  0  0  0
 20 21  2  0  0  0
 21 22  1  0  0  0
 22 23  2  0  0  0
 23 24  1  0  0  0
 24 25  2  0  0  0
 24 26  1  0  0  0
 21 27  1  0  0  0
 20 28  1  0  0  0
 19 29  1  0  0  0
 16 30  1  0  0  0
 15 31  1  0  0  0
 14 32  1  0  0  0
  3 33  1  0  0  0
 33 34  1  0  0  0
 34 35  2  0  0  0
 34 36  1  0  0  0
 36 37  2  0  0  0
 37 38  1  0  0  0
 38 39  2  0  0  0
 39 40  1  0  0  0
 40 41  2  0  0  0
 41 42  1  0  0  0
 42 43  2  0  0  0
 43 44  1  0  0  0
 44 45  2  0  0  0
 45 46  1  0  0  0
 46 47  2  0  0  0
 47 48  1  0  0  0
 48 49  2  0  0  0
 48 50  1  0  0  0
 50 51  1  0  0  0
 51 52  2  0  0  0
 52 53  1  0  0  0
 53 54  2  0  0  0
 54 55  1  0  0  0
 55 56  2  0  0  0
 56 57  1  0  0  0
 57 58  2  0  0  0
 58 59  1  0  0  0
 59 60  2  0  0  0
 60 61  1  0  0  0
 61 62  2  0  0  0
 61 63  1  0  0  0
 58 64  1  0  0  0
 57 65  1  0  0  0
 56 66  1  0  0  0
 54 67  1  0  0  0
 67 68  2  0  0  0
 67 69  1  0  0  0
 69 70  2  0  0  0
 69 71  1  0  0  0
 53 72  1  0  0  0
 52 73  1  0  0  0
 44 74  1  0  0  0
 43 75  1  0  0  0
 40 76  1  0  0  0
 39 77  1  0  0  0
 38 78  1  0  0  0
 63  1  1  0  0  0
  7  2  1  0  0  0
 68 51  1  0  0  0
 26  4  1  0  0  0
 60 55  1  0  0  0
 17 12  1  0  0  0
 23 18  1  0  0  0
 41 36  1  0  0  0
 47 42  1  0  0  0
 71 45  1  0  0  0
 68 46  1  0  0  0
  8 79  1  0  0  0
 27 80  1  0  0  0
 28 81  1  0  0  0
 29 82  1  0  0  0
 30 83  1  0  0  0
 31 84  1  0  0  0
 32 85  1  0  0  0
 64 86  1  0  0  0
 65 87  1  0  0  0
 66 88  1  0  0  0
 72 89  1  0  0  0
 73 90  1  0  0  0
 74 91  1  0  0  0
 75 92  1  0  0  0
 76 93  1  0  0  0
 77 94  1  0  0  0
 78 95  1  0  0  0
M  END
>  <minimizedAffinity>
225.25866

>  <minimizedRMSD>
6.81497

$$$$
MCULE-5436074039


113122  0  0  0  0  0  0  0  0999 V2000
   27.2388    7.2313  -20.3381 N   0  0  0  0  0  0  0  0  0  0  0  0
   28.4754    7.3768  -21.0975 C   0  0  0  0  0  0  0  0  0  0  0  0
   28.3902    8.5426  -22.0975 C   0  0  0  0  0  0  0  0  0  0  0  0
   27.4257    8.3024  -23.2161 C   0  0  0  0  0  0  0  0  0  0  0  0
   26.0463    8.2231  -22.9843 C   0  0  0  0  0  0  0  0  0  0  0  0
   25.1822    7.8572  -24.0192 C   0  0  0  0  0  0  0  0  0  0  0  0
   25.6956    7.5638  -25.2880 C   0  0  0  0  0  0  0  0  0  0  0  0
   24.8750    6.9657  -26.2466 O   0  0  0  0  0  0  0  0  0  0  0  0
   24.5927    5.5924  -26.1824 C   0  0  0  0  0  0  0  0  0  0  0  0
   25.0022    4.8408  -25.0702 C   0  0  0  0  0  0  0  0  0  0  0  0
   24.8078    3.4619  -25.0088 C   0  0  0  0  0  0  0  0  0  0  0  0
   25.4013    2.6553  -23.8860 C   0  0  0  0  0  0  0  0  0  0  0  0
   26.4824    3.3832  -23.2227 N   0  0  0  0  0  0  0  0  0  0  0  0
   27.5423    2.7400  -22.5084 C   0  0  0  0  0  0  0  0  0  0  0  0
   27.6114    1.4809  -22.4964 O   0  0  0  0  0  0  0  0  0  0  0  0
   28.6433    3.5610  -21.8864 C   0  0  0  0  0  0  0  0  0  0  0  0
   28.1532    4.8729  -21.4777 N   0  0  0  0  0  0  0  0  0  0  0  0
   28.8801    6.0778  -21.7427 C   0  0  0  0  0  0  0  0  0  0  0  0
   29.8949    6.0478  -22.4859 O   0  0  0  0  0  0  0  0  0  0  0  0
   24.3614    2.2049  -22.8985 C   0  0  0  0  0  0  0  0  0  0  0  0
   24.0515    2.9516  -21.9305 O   0  0  0  0  0  0  0  0  0  0  0  0
   23.6736    0.9643  -23.0648 N   0  0  0  0  0  0  0  0  0  0  0  0
   23.8135    0.0853  -24.2250 C   0  0  0  0  0  0  0  0  0  0  0  0
   25.0804   -0.7202  -24.1485 C   0  0  0  0  0  0  0  0  0  0  0  0
   25.0637   -1.9996  -23.5939 C   0  0  0  0  0  0  0  0  0  0  0  0
   26.1570   -2.8557  -23.7160 C   0  0  0  0  0  0  0  0  0  0  0  0
   27.3304   -2.3861  -24.3318 C   0  0  0  0  0  0  0  0  0  0  0  0
   27.3724   -1.0854  -24.8437 C   0  0  0  0  0  0  0  0  0  0  0  0
   26.2425   -0.2644  -24.7750 C   0  0  0  0  0  0  0  0  0  0  0  0
   28.4391   -3.2091  -24.4781 O   0  0  0  0  0  0  0  0  0  0  0  0
   25.9487   -4.2862  -23.4099 C   0  0  0  0  0  0  0  0  0  0  0  0
   26.7611   -4.9452  -22.4676 C   0  0  0  0  0  0  0  0  0  0  0  0
   27.7541   -4.2572  -21.7791 O   0  0  0  0  0  0  0  0  0  0  0  0
   26.5618   -6.3015  -22.1989 C   0  0  0  0  0  0  0  0  0  0  0  0
   25.5604   -7.0133  -22.8610 C   0  0  0  0  0  0  0  0  0  0  0  0
   25.3745   -8.3625  -22.5907 O   0  0  0  0  0  0  0  0  0  0  0  0
   24.7450   -6.3702  -23.7924 C   0  0  0  0  0  0  0  0  0  0  0  0
   24.9135   -5.0062  -24.0660 C   0  0  0  0  0  0  0  0  0  0  0  0
   24.0461   -4.3357  -25.1096 C   0  0  0  0  0  0  0  0  0  0  0  0
   22.6754   -4.8300  -25.0837 N   0  0  0  0  0  0  0  0  0  0  0  0
   21.4985   -4.1201  -25.5045 C   0  0  0  0  0  0  0  0  0  0  0  0
   20.4517   -4.7919  -25.7101 O   0  0  0  0  0  0  0  0  0  0  0  0
   21.4149   -2.6171  -25.6925 C   0  0  0  0  0  0  0  0  0  0  0  0
   20.9392   -2.2536  -27.1190 C   0  0  0  0  0  0  0  0  0  0  0  0
   19.5457   -2.3860  -27.1872 O   0  0  0  0  0  0  0  0  0  0  0  0
   21.3296   -0.8668  -27.5285 C   0  0  0  0  0  0  0  0  0  0  0  0
   22.2652   -0.6955  -28.5542 C   0  0  0  0  0  0  0  0  0  0  0  0
   22.7778    0.5738  -28.8359 C   0  0  0  0  0  0  0  0  0  0  0  0
   23.9747    0.7460  -30.1099 Cl  0  0  0  0  0  0  0  0  0  0  0  0
   22.3962    1.6711  -28.0490 C   0  0  0  0  0  0  0  0  0  0  0  0
   21.4079    1.5113  -27.0659 C   0  0  0  0  0  0  0  0  0  0  0  0
   20.8720    0.2481  -26.8110 C   0  0  0  0  0  0  0  0  0  0  0  0
   23.0141    2.9122  -28.2191 O   0  0  0  0  0  0  0  0  0  0  0  0
   23.6937    3.5629  -27.1790 C   0  0  0  0  0  0  0  0  0  0  0  0
   24.1353    2.8323  -26.0571 C   0  0  0  0  0  0  0  0  0  0  0  0
   23.9695    4.9489  -27.2623 C   0  0  0  0  0  0  0  0  0  0  0  0
   22.6269   -1.8969  -25.3093 N   0  0  0  0  0  0  0  0  0  0  0  0
   22.5927   -0.7927  -24.3930 C   0  0  0  0  0  0  0  0  0  0  0  0
   21.5240   -0.5159  -23.7795 O   0  0  0  0  0  0  0  0  0  0  0  0
   27.0646    7.7313  -25.5425 C   0  0  0  0  0  0  0  0  0  0  0  0
   27.7305    7.3876  -27.1306 Cl  0  0  0  0  0  0  0  0  0  0  0  0
   27.9265    8.0831  -24.5014 C   0  0  0  0  0  0  0  0  0  0  0  0
   28.0928    9.7374  -21.4394 O   0  0  0  0  0  0  0  0  0  0  0  0
   26.9925    8.1261  -19.9148 H   0  0  0  0  0  0  0  0  0  0  0  0
   27.3696    6.5333  -19.6059 H   0  0  0  0  0  0  0  0  0  0  0  0
   26.4808    4.3666  -23.2700 H   0  0  0  0  0  0  0  0  0  0  0  0
   27.2927    4.9319  -21.0031 H   0  0  0  0  0  0  0  0  0  0  0  0
   23.0618    0.6807  -22.3474 H   0  0  0  0  0  0  0  0  0  0  0  0
   28.4223   -4.0825  -24.1391 H   0  0  0  0  0  0  0  0  0  0  0  0
   27.8981   -3.3472  -21.9498 H   0  0  0  0  0  0  0  0  0  0  0  0
   25.9221   -8.7947  -21.9651 H   0  0  0  0  0  0  0  0  0  0  0  0
   22.5418   -5.7439  -24.7430 H   0  0  0  0  0  0  0  0  0  0  0  0
   19.1313   -1.7672  -26.5658 H   0  0  0  0  0  0  0  0  0  0  0  0
   23.4906   -2.1766  -25.6900 H   0  0  0  0  0  0  0  0  0  0  0  0
   27.2160    9.6714  -21.0297 H   0  0  0  0  0  0  0  0  0  0  0  0
   24.6355   -4.4638  -26.4750 C   0  0  0  0  0  0  0  0  0  0  0  0
   24.2305   -5.3519  -27.2682 O   0  0  0  0  0  0  0  0  0  0  0  0
   25.6512   -3.5987  -26.8640 O   0  0  0  0  0  0  0  0  0  0  0  0
   25.9541   -2.9365  -26.2744 H   0  0  0  0  0  0  0  0  0  0  0  0
   29.2190    2.8346  -20.6764 C   0  0  0  0  0  0  0  0  0  0  0  0
   28.3137    2.9558  -19.4948 C   0  0  0  0  0  0  0  0  0  0  0  0
   28.3164    4.0089  -18.7955 O   0  0  0  0  0  0  0  0  0  0  0  0
   27.4566    1.8666  -19.1442 N   0  0  0  0  0  0  0  0  0  0  0  0
   27.4546    1.0466  -19.6890 H   0  0  0  0  0  0  0  0  0  0  0  0
   26.8682    1.9366  -18.3579 H   0  0  0  0  0  0  0  0  0  0  0  0
   23.6777    5.7070  -28.4043 O   0  0  0  0  0  0  0  0  0  0  0  0
   24.0002    5.2880  -29.7313 C   0  0  0  0  0  0  0  0  0  0  0  0
   22.7611    5.2988  -30.6403 C   0  0  0  0  0  0  0  0  0  0  0  0
   22.3389    6.7356  -30.9726 C   0  0  0  0  0  0  0  0  0  0  0  0
   21.6818    7.3063  -29.8843 O   0  0  0  0  0  0  0  0  0  0  0  0
   23.5485    7.5775  -31.3824 C   0  0  0  0  0  0  0  0  0  0  0  0
   23.1888    8.9166  -31.5260 O   0  0  0  0  0  0  0  0  0  0  0  0
   24.6614    7.4127  -30.3441 C   0  0  0  0  0  0  0  0  0  0  0  0
   25.0579    6.0582  -30.2748 O   0  0  0  0  0  0  0  0  0  0  0  0
   22.2828    7.3371  -29.1236 H   0  0  0  0  0  0  0  0  0  0  0  0
   22.8556    9.2544  -30.6799 H   0  0  0  0  0  0  0  0  0  0  0  0
   25.8635    8.2699  -30.7051 C   0  0  0  0  0  0  0  0  0  0  0  0
   26.0296    8.2788  -32.0901 O   0  0  0  0  0  0  0  0  0  0  0  0
   26.1729    7.3724  -32.4044 H   0  0  0  0  0  0  0  0  0  0  0  0
   23.0617    4.6208  -31.8249 O   0  0  0  0  0  0  0  0  0  0  0  0
   21.9461    3.8230  -32.0965 C   0  0  0  0  0  0  0  0  0  0  0  0
   20.8840    4.6534  -32.8336 C   0  0  0  0  0  0  0  0  0  0  0  0
   19.8664    3.7698  -33.5696 C   0  0  0  0  0  0  0  0  0  0  0  0
   20.2309    3.7269  -35.0434 C   0  0  0  0  0  0  0  0  0  0  0  0
   18.5465    4.3654  -33.4412 N   0  0  0  0  0  0  0  0  0  0  0  0
   19.8541    2.3388  -32.9977 C   0  0  0  0  0  0  0  0  0  0  0  0
   19.2469    2.3295  -31.7339 O   0  0  0  0  0  0  0  0  0  0  0  0
   21.2970    1.7649  -32.9179 C   0  0  0  0  0  0  0  0  0  0  0  0
   21.4937    0.7122  -31.8346 C   0  0  0  0  0  0  0  0  0  0  0  0
   22.3356    2.7307  -32.8981 O   0  0  0  0  0  0  0  0  0  0  0  0
   18.5621    5.3118  -33.8215 H   0  0  0  0  0  0  0  0  0  0  0  0
   18.2829    4.3990  -32.4564 H   0  0  0  0  0  0  0  0  0  0  0  0
   19.7531    2.8928  -31.1278 H   0  0  0  0  0  0  0  0  0  0  0  0
  2  1  1  0  0  0
  2  3  1  0  0  0
  3  4  1  0  0  0
  4  5  2  0  0  0
  5  6  1  0  0  0
  6  7  2  0  0  0
  7  8  1  0  0  0
  8  9  1  0  0  0
  9 10  1  0  0  0
 10 11  2  0  0  0
 11 12  1  0  0  0
 12 13  1  0  0  0
 13 14  1  0  0  0
 14 15  2  0  0  0
 14 16  1  0  0  0
 16 17  1  0  0  0
 17 18  1  0  0  0
 18 19  2  0  0  0
 16 80  1  0  0  0
 80 81  1  0  0  0
 81 82  2  0  0  0
 81 83  1  0  0  0
 12 20  1  0  0  0
 20 21  2  0  0  0
 20 22  1  0  0  0
 22 23  1  0  0  0
 23 24  1  0  0  0
 24 25  2  0  0  0
 25 26  1  0  0  0
 26 27  2  0  0  0
 27 28  1  0  0  0
 28 29  2  0  0  0
 27 30  1  0  0  0
 26 31  1  0  0  0
 31 32  2  0  0  0
 32 33  1  0  0  0
 32 34  1  0  0  0
 34 35  2  0  0  0
 35 36  1  0  0  0
 35 37  1  0  0  0
 37 38  2  0  0  0
 38 39  1  0  0  0
 39 76  1  0  0  0
 76 77  2  0  0  0
 76 78  1  0  0  0
 39 40  1  0  0  0
 40 41  1  0  0  0
 41 42  2  0  0  0
 43 41  1  0  0  0
 43 44  1  0  0  0
 44 45  1  0  0  0
 44 46  1  0  0  0
 46 47  2  0  0  0
 47 48  1  0  0  0
 48 49  1  0  0  0
 48 50  2  0  0  0
 50 51  1  0  0  0
 51 52  2  0  0  0
 50 53  1  0  0  0
 53 54  1  0  0  0
 54 55  2  0  0  0
 54 56  1  0  0  0
 56 86  1  0  0  0
 87 86  1  0  0  0
 87 88  1  0  0  0
 88100  1  0  0  0
101100  1  0  0  0
101102  1  0  0  0
102103  1  0  0  0
103104  1  0  0  0
103105  1  0  0  0
103106  1  0  0  0
106107  1  0  0  0
106108  1  0  0  0
108109  1  0  0  0
108110  1  0  0  0
 88 89  1  0  0  0
 89 90  1  0  0  0
 89 91  1  0  0  0
 91 92  1  0  0  0
 91 93  1  0  0  0
 93 97  1  0  0  0
 97 98  1  0  0  0
 93 94  1  0  0  0
 43 57  1  0  0  0
 57 58  1  0  0  0
 58 59  2  0  0  0
  7 60  1  0  0  0
 60 61  1  0  0  0
 60 62  2  0  0  0
  3 63  1  0  0  0
 18  2  1  0  0  0
 58 23  1  0  0  0
 62  4  1  0  0  0
 56  9  2  0  0  0
 94 87  1  0  0  0
 55 11  1  0  0  0
110101  1  0  0  0
 29 24  1  0  0  0
 38 31  1  0  0  0
 52 46  1  0  0  0
  1 64  1  0  0  0
  1 65  1  0  0  0
 13 66  1  0  0  0
 17 67  1  0  0  0
 83 84  1  0  0  0
 83 85  1  0  0  0
 22 68  1  0  0  0
 30 69  1  0  0  0
 33 70  1  0  0  0
 36 71  1  0  0  0
 78 79  1  0  0  0
 40 72  1  0  0  0
 45 73  1  0  0  0
105111  1  0  0  0
105112  1  0  0  0
107113  1  0  0  0
 90 95  1  0  0  0
 92 96  1  0  0  0
 98 99  1  0  0  0
 57 74  1  0  0  0
 63 75  1  0  0  0
M  END
>  <minimizedAffinity>
240.13733

>  <minimizedRMSD>
7.12232

$$$$
MCULE-1656634426 PubChem-16129869


 95105  0  0  0  0  0  0  0  0999 V2000
   29.9222   -9.9135  -25.6037 C   0  0  0  0  0  0  0  0  0  0  0  0
   30.6121   -9.0293  -24.5684 C   0  0  0  0  0  0  0  0  0  0  0  0
   31.6680   -9.7428  -23.7116 C   0  0  0  0  0  0  0  0  0  0  0  0
   32.9917   -9.8973  -24.4760 C   0  0  0  0  0  0  0  0  0  0  0  0
   33.3789   -8.5823  -25.1680 C   0  0  0  0  0  0  0  0  0  0  0  0
   32.1785   -8.0775  -25.9662 C   0  0  0  0  0  0  0  0  0  0  0  0
   31.0862   -7.8142  -25.1180 O   0  0  0  0  0  0  0  0  0  0  0  0
   32.5144   -6.9203  -26.6685 O   0  0  0  0  0  0  0  0  0  0  0  0
   33.8137   -7.6153  -24.2200 O   0  0  0  0  0  0  0  0  0  0  0  0
   35.0157   -6.9428  -24.4186 C   0  0  0  0  0  0  0  0  0  0  0  0
   35.1218   -6.0952  -25.3453 O   0  0  0  0  0  0  0  0  0  0  0  0
   36.1853   -7.2773  -23.6022 C   0  0  0  0  0  0  0  0  0  0  0  0
   36.4135   -6.5617  -22.4247 C   0  0  0  0  0  0  0  0  0  0  0  0
   37.5283   -6.8433  -21.6328 C   0  0  0  0  0  0  0  0  0  0  0  0
   38.4270   -7.8452  -22.0171 C   0  0  0  0  0  0  0  0  0  0  0  0
   38.2056   -8.5717  -23.1942 C   0  0  0  0  0  0  0  0  0  0  0  0
   37.0839   -8.2942  -23.9952 C   0  0  0  0  0  0  0  0  0  0  0  0
   36.8228   -9.1048  -25.2098 C   0  0  0  0  0  0  0  0  0  0  0  0
   37.3985   -8.7343  -26.4385 C   0  0  0  0  0  0  0  0  0  0  0  0
   37.0948   -9.4534  -27.6022 C   0  0  0  0  0  0  0  0  0  0  0  0
   36.2135  -10.5393  -27.5451 C   0  0  0  0  0  0  0  0  0  0  0  0
   35.6411  -10.9124  -26.3279 C   0  0  0  0  0  0  0  0  0  0  0  0
   35.9400  -10.2061  -25.1599 C   0  0  0  0  0  0  0  0  0  0  0  0
   35.3313  -10.6307  -23.8899 C   0  0  0  0  0  0  0  0  0  0  0  0
   36.0602  -11.1840  -23.0248 O   0  0  0  0  0  0  0  0  0  0  0  0
   33.9935  -10.3707  -23.5723 O   0  0  0  0  0  0  0  0  0  0  0  0
   35.9049  -11.2541  -28.6954 O   0  0  0  0  0  0  0  0  0  0  0  0
   37.6647   -9.0852  -28.8158 O   0  0  0  0  0  0  0  0  0  0  0  0
   38.2626   -7.6453  -26.5088 O   0  0  0  0  0  0  0  0  0  0  0  0
   39.0978   -9.5742  -23.5607 O   0  0  0  0  0  0  0  0  0  0  0  0
   39.5383   -8.1231  -21.2281 O   0  0  0  0  0  0  0  0  0  0  0  0
   37.7383   -6.1235  -20.4636 O   0  0  0  0  0  0  0  0  0  0  0  0
   31.8794   -8.9913  -22.5169 O   0  0  0  0  0  0  0  0  0  0  0  0
   31.8788   -9.5849  -21.2511 C   0  0  0  0  0  0  0  0  0  0  0  0
   31.7747  -10.8390  -21.1474 O   0  0  0  0  0  0  0  0  0  0  0  0
   32.0520   -8.7629  -20.0273 C   0  0  0  0  0  0  0  0  0  0  0  0
   32.6286   -9.3762  -18.9074 C   0  0  0  0  0  0  0  0  0  0  0  0
   32.8252   -8.6718  -17.7206 C   0  0  0  0  0  0  0  0  0  0  0  0
   32.4384   -7.3335  -17.6293 C   0  0  0  0  0  0  0  0  0  0  0  0
   31.8437   -6.7018  -18.7264 C   0  0  0  0  0  0  0  0  0  0  0  0
   31.6418   -7.4048  -19.9321 C   0  0  0  0  0  0  0  0  0  0  0  0
   30.9622   -6.7196  -21.0601 C   0  0  0  0  0  0  0  0  0  0  0  0
   31.6724   -5.7244  -21.7652 C   0  0  0  0  0  0  0  0  0  0  0  0
   31.1573   -5.1868  -22.9490 C   0  0  0  0  0  0  0  0  0  0  0  0
   29.9617   -5.6750  -23.4774 C   0  0  0  0  0  0  0  0  0  0  0  0
   29.2321   -6.6448  -22.7708 C   0  0  0  0  0  0  0  0  0  0  0  0
   29.6840   -7.1343  -21.5292 C   0  0  0  0  0  0  0  0  0  0  0  0
   28.8446   -8.0580  -20.8532 C   0  0  0  0  0  0  0  0  0  0  0  0
   29.1053   -8.4427  -19.6818 O   0  0  0  0  0  0  0  0  0  0  0  0
   27.7492   -8.5297  -21.4433 O   0  0  0  0  0  0  0  0  0  0  0  0
   27.3692   -8.1684  -22.6646 C   0  0  0  0  0  0  0  0  0  0  0  0
   26.2643   -8.7771  -23.2624 C   0  0  0  0  0  0  0  0  0  0  0  0
   25.9335   -8.4801  -24.5887 C   0  0  0  0  0  0  0  0  0  0  0  0
   26.6816   -7.5333  -25.3194 C   0  0  0  0  0  0  0  0  0  0  0  0
   26.4460   -7.4364  -26.7789 C   0  0  0  0  0  0  0  0  0  0  0  0
   25.3233   -6.7177  -27.2371 C   0  0  0  0  0  0  0  0  0  0  0  0
   25.0775   -6.5885  -28.6079 C   0  0  0  0  0  0  0  0  0  0  0  0
   25.9475   -7.1719  -29.5311 C   0  0  0  0  0  0  0  0  0  0  0  0
   27.0575   -7.8895  -29.0877 C   0  0  0  0  0  0  0  0  0  0  0  0
   27.3263   -8.0433  -27.7202 C   0  0  0  0  0  0  0  0  0  0  0  0
   28.5351   -8.8252  -27.3407 C   0  0  0  0  0  0  0  0  0  0  0  0
   29.4015   -9.0924  -28.2201 O   0  0  0  0  0  0  0  0  0  0  0  0
   28.7240   -9.2730  -26.0296 O   0  0  0  0  0  0  0  0  0  0  0  0
   25.7130   -7.0419  -30.8939 O   0  0  0  0  0  0  0  0  0  0  0  0
   23.9686   -5.8757  -29.0525 O   0  0  0  0  0  0  0  0  0  0  0  0
   24.4538   -6.1199  -26.3287 O   0  0  0  0  0  0  0  0  0  0  0  0
   27.7303   -6.8172  -24.6771 C   0  0  0  0  0  0  0  0  0  0  0  0
   28.0912   -7.1890  -23.3664 C   0  0  0  0  0  0  0  0  0  0  0  0
   28.4827   -5.7797  -25.2877 C   0  0  0  0  0  0  0  0  0  0  0  0
   28.1689   -5.3242  -26.4195 O   0  0  0  0  0  0  0  0  0  0  0  0
   29.5429   -5.2626  -24.6700 O   0  0  0  0  0  0  0  0  0  0  0  0
   24.8781   -9.1573  -25.1939 O   0  0  0  0  0  0  0  0  0  0  0  0
   25.5192   -9.7147  -22.5545 O   0  0  0  0  0  0  0  0  0  0  0  0
   31.8686   -4.2061  -23.6314 O   0  0  0  0  0  0  0  0  0  0  0  0
   32.9168   -5.2943  -21.3117 O   0  0  0  0  0  0  0  0  0  0  0  0
   31.4370   -5.3762  -18.6099 O   0  0  0  0  0  0  0  0  0  0  0  0
   32.6338   -6.6334  -16.4429 O   0  0  0  0  0  0  0  0  0  0  0  0
   33.4039   -9.3102  -16.6313 O   0  0  0  0  0  0  0  0  0  0  0  0
   32.7686   -6.2244  -26.0424 H   0  0  0  0  0  0  0  0  0  0  0  0
   36.2857  -11.0088  -29.5157 H   0  0  0  0  0  0  0  0  0  0  0  0
   38.2548   -8.3584  -28.8550 H   0  0  0  0  0  0  0  0  0  0  0  0
   38.4695   -7.1606  -25.7340 H   0  0  0  0  0  0  0  0  0  0  0  0
   39.8442   -9.7561  -23.0244 H   0  0  0  0  0  0  0  0  0  0  0  0
   39.6870   -7.6376  -20.4406 H   0  0  0  0  0  0  0  0  0  0  0  0
   37.1336   -5.4538  -20.2108 H   0  0  0  0  0  0  0  0  0  0  0  0
   24.9685   -6.5606  -31.1973 H   0  0  0  0  0  0  0  0  0  0  0  0
   23.3845   -5.4839  -28.4334 H   0  0  0  0  0  0  0  0  0  0  0  0
   24.6097   -6.2006  -25.4083 H   0  0  0  0  0  0  0  0  0  0  0  0
   24.3831   -9.7855  -24.7058 H   0  0  0  0  0  0  0  0  0  0  0  0
   25.7399   -9.9144  -21.6660 H   0  0  0  0  0  0  0  0  0  0  0  0
   32.6715   -3.8777  -23.2772 H   0  0  0  0  0  0  0  0  0  0  0  0
   33.2742   -5.6459  -20.5201 H   0  0  0  0  0  0  0  0  0  0  0  0
   31.5733   -4.9133  -17.8067 H   0  0  0  0  0  0  0  0  0  0  0  0
   33.0324   -7.0577  -15.7087 H   0  0  0  0  0  0  0  0  0  0  0  0
   33.6618  -10.2085  -16.6974 H   0  0  0  0  0  0  0  0  0  0  0  0
  1  2  1  0  0  0
  2  3  1  0  0  0
  3  4  1  0  0  0
  4  5  1  0  0  0
  5  6  1  0  0  0
  6  7  1  0  0  0
  6  8  1  0  0  0
  5  9  1  0  0  0
  9 10  1  0  0  0
 10 11  2  0  0  0
 10 12  1  0  0  0
 12 13  2  0  0  0
 13 14  1  0  0  0
 14 15  2  0  0  0
 15 16  1  0  0  0
 16 17  2  0  0  0
 17 18  1  0  0  0
 18 19  2  0  0  0
 19 20  1  0  0  0
 20 21  2  0  0  0
 21 22  1  0  0  0
 22 23  2  0  0  0
 23 24  1  0  0  0
 24 25  2  0  0  0
 24 26  1  0  0  0
 21 27  1  0  0  0
 20 28  1  0  0  0
 19 29  1  0  0  0
 16 30  1  0  0  0
 15 31  1  0  0  0
 14 32  1  0  0  0
  3 33  1  0  0  0
 33 34  1  0  0  0
 34 35  2  0  0  0
 34 36  1  0  0  0
 36 37  2  0  0  0
 37 38  1  0  0  0
 38 39  2  0  0  0
 39 40  1  0  0  0
 40 41  2  0  0  0
 41 42  1  0  0  0
 42 43  2  0  0  0
 43 44  1  0  0  0
 44 45  2  0  0  0
 45 46  1  0  0  0
 46 47  2  0  0  0
 47 48  1  0  0  0
 48 49  2  0  0  0
 48 50  1  0  0  0
 50 51  1  0  0  0
 51 52  2  0  0  0
 52 53  1  0  0  0
 53 54  2  0  0  0
 54 55  1  0  0  0
 55 56  2  0  0  0
 56 57  1  0  0  0
 57 58  2  0  0  0
 58 59  1  0  0  0
 59 60  2  0  0  0
 60 61  1  0  0  0
 61 62  2  0  0  0
 61 63  1  0  0  0
 58 64  1  0  0  0
 57 65  1  0  0  0
 56 66  1  0  0  0
 54 67  1  0  0  0
 67 68  2  0  0  0
 67 69  1  0  0  0
 69 70  2  0  0  0
 69 71  1  0  0  0
 53 72  1  0  0  0
 52 73  1  0  0  0
 44 74  1  0  0  0
 43 75  1  0  0  0
 40 76  1  0  0  0
 39 77  1  0  0  0
 38 78  1  0  0  0
 63  1  1  0  0  0
  7  2  1  0  0  0
 68 51  1  0  0  0
 26  4  1  0  0  0
 60 55  1  0  0  0
 17 12  1  0  0  0
 23 18  1  0  0  0
 41 36  1  0  0  0
 47 42  1  0  0  0
 71 45  1  0  0  0
 68 46  1  0  0  0
  8 79  1  0  0  0
 27 80  1  0  0  0
 28 81  1  0  0  0
 29 82  1  0  0  0
 30 83  1  0  0  0
 31 84  1  0  0  0
 32 85  1  0  0  0
 64 86  1  0  0  0
 65 87  1  0  0  0
 66 88  1  0  0  0
 72 89  1  0  0  0
 73 90  1  0  0  0
 74 91  1  0  0  0
 75 92  1  0  0  0
 76 93  1  0  0  0
 77 94  1  0  0  0
 78 95  1  0  0  0
M  END
>  <minimizedAffinity>
305.87173

>  <minimizedRMSD>
3.91904

$$$$
