MolPort-047-659-729 PubChem-16132273 PubChem-16132274


127141  0  0  0  0  0  0  0  0999 V2000
   11.5614   19.2282   52.8810 C   0  0  0  0  0
   10.8950   18.5607   51.6810 C   0  0  0  0  0
   11.7863   18.5467   50.4300 C   0  0  0  0  0
   13.0045   17.6250   50.6026 C   0  0  0  0  0
   12.7262   16.5218   51.6213 C   0  0  0  0  0
   11.2273   16.1934   51.7305 C   0  0  0  0  0
   10.2725   14.3150   51.0768 C   0  0  0  0  0
   10.9308   13.1020   50.4090 C   0  0  0  0  0
   12.4183   13.1383   50.3371 C   0  0  0  0  0
   14.4727   12.3132   49.1189 C   0  0  0  0  0
   14.7616   11.2748   48.0604 C   0  0  0  0  0
   15.2330   11.6672   46.8024 C   0  0  0  0  0
   15.5767   10.7161   45.8399 C   0  0  0  0  0
   15.4742    9.3594   46.1373 C   0  0  0  0  0
   14.9828    8.9334   47.3818 C   0  0  0  0  0
   14.5771    9.8959   48.3340 C   0  0  0  0  0
   13.8977    9.4496   49.5658 C   0  0  0  0  0
   14.6143    8.9803   50.6790 C   0  0  0  0  0
   13.9230    8.5853   51.8306 C   0  0  0  0  0
   12.5263    8.6724   51.8876 C   0  0  0  0  0
   11.8019    9.1626   50.7861 C   0  0  0  0  0
   12.5047    9.5224   49.6234 C   0  0  0  0  0
   10.2976    9.3742   50.8440 C   0  0  0  0  0
   10.0024   10.7578   50.3511 C   0  0  0  0  0
    8.4222    9.1256   52.5508 C   0  0  0  0  0
    7.4964    8.2732   51.7114 C   0  0  0  0  0
    6.2190    8.9789   51.2928 C   0  0  0  0  0
    4.9863    8.3167   51.3074 C   0  0  0  0  0
    3.8159    8.9509   50.8760 C   0  0  0  0  0
    3.8622   10.2714   50.3987 C   0  0  0  0  0
    5.0965   10.9620   50.4015 C   0  0  0  0  0
    6.2611   10.2901   50.8213 C   0  0  0  0  0
    6.2885   13.0948   50.3256 C   0  0  0  0  0
    7.0071   13.7078   49.2947 C   0  0  0  0  0
    8.2666   14.2485   49.5571 C   0  0  0  0  0
    8.7981   14.2037   50.8579 C   0  0  0  0  0
    8.0224   13.6996   51.9053 C   0  0  0  0  0
    6.7693   13.1574   51.6452 C   0  0  0  0  0
    2.5911   11.9763   49.1000 C   0  0  0  0  0
    1.7112   13.0609   49.7365 C   0  0  0  0  0
    0.8192   13.7698   48.7065 C   0  0  0  0  0
    1.4754   13.8657   47.3240 C   0  0  0  0  0
    2.2841   12.6069   46.9582 C   0  0  0  0  0
    1.9329   12.1544   45.5467 C   0  0  0  0  0
   -0.0077   12.1162   44.4716 C   0  0  0  0  0
   -1.3553   12.6542   44.9705 C   0  0  0  0  0
   -2.4173   12.5942   43.8604 C   0  0  0  0  0
   -1.7967   12.8196   42.4815 C   0  0  0  0  0
   -0.6356   11.8110   42.2686 C   0  0  0  0  0
    0.5293   12.3412   41.4374 C   0  0  0  0  0
    2.2882    7.3992   51.9791 C   0  0  0  0  0
    1.9173    6.0735   51.7221 C   0  0  0  0  0
    1.7049    5.1886   52.7873 C   0  0  0  0  0
    1.8417    5.6285   54.1083 C   0  0  0  0  0
    2.1566    6.9734   54.3585 C   0  0  0  0  0
    2.3860    7.8504   53.3023 C   0  0  0  0  0
    1.7307    4.6481   55.2376 C   0  0  0  0  0
    2.9699    4.7287   56.1379 C   0  0  0  0  0
    4.2429    4.4187   55.4152 C   0  0  0  0  0
    6.2373    5.4534   54.1320 C   0  0  0  0  0
    7.3289    5.0180   55.0646 C   0  0  0  0  0
    7.3557    5.4879   56.3783 C   0  0  0  0  0
    8.3039    5.0231   57.2980 C   0  0  0  0  0
    9.2883    4.1177   56.8624 C   0  0  0  0  0
    9.2737    3.6479   55.5380 C   0  0  0  0  0
    8.2931    4.0952   54.6451 C   0  0  0  0  0
   10.3174    3.6189   57.8238 C   0  0  0  0  0
    7.1235    5.8733   59.3211 C   0  0  0  0  0
    7.2421    6.4361   60.6002 C   0  0  0  0  0
    6.1037    6.8519   61.3012 C   0  0  0  0  0
    4.8363    6.7048   60.7336 C   0  0  0  0  0
    4.6954    6.1366   59.4575 C   0  0  0  0  0
    5.8372    5.7257   58.7702 C   0  0  0  0  0
    3.3531    5.9742   58.7944 C   0  0  0  0  0
    2.9552    4.5326   58.6498 C   0  0  0  0  0
    6.5360    6.8230   53.6025 C   0  0  0  0  0
   15.4929    6.5538   46.8966 C   0  0  0  0  0
   15.0680    5.1666   47.4040 C   0  0  0  0  0
   15.7554    4.0753   46.5720 C   0  0  0  0  0
   17.2391    4.3795   46.3332 C   0  0  0  0  0
   17.4149    5.8568   45.9534 C   0  0  0  0  0
   18.8745    6.1931   45.7115 C   0  0  0  0  0
   15.2961   13.5576   48.9871 C   0  0  0  0  0
   15.7070   15.7108   47.8558 C   0  0  0  0  0
   10.3745   17.2880   52.0467 O   0  0  0  0  0
   10.7653   15.5274   50.5857 O   0  0  0  0  0
   13.1070   13.4620   51.3470 O   0  0  0  0  0
    9.3973   10.9236   49.2573 O   0  0  0  0  0
    8.0023    9.6665   53.6043 O   0  0  0  0  0
    5.1706   12.3103   50.0210 O   0  0  0  0  0
    2.6648   10.8617   49.9725 O   0  0  0  0  0
    2.0639   11.5551   47.8674 O   0  0  0  0  0
    0.6795   11.5321   45.5357 O   0  0  0  0  0
   -0.1908   11.1577   43.4463 O   0  0  0  0  0
   -1.3529   14.1445   42.3696 O   0  0  0  0  0
   -3.4656   13.4932   44.0963 O   0  0  0  0  0
   -1.1803   13.9635   45.4248 O   0  0  0  0  0
    2.3074   14.9846   47.2689 O   0  0  0  0  0
   -0.3924   13.0866   48.5983 O   0  0  0  0  0
    2.5185   13.9911   50.3886 O   0  0  0  0  0
    2.5964    8.2628   50.9249 O   0  0  0  0  0
    4.6415    3.2322   55.2639 O   0  0  0  0  0
   10.2138    2.7143   55.1080 O   0  0  0  0  0
    8.2703    5.4361   58.6399 O   0  0  0  0  0
    2.7381    3.8384   59.6744 O   0  0  0  0  0
    8.4994    6.5878   61.1771 O   0  0  0  0  0
    6.1435    7.8337   54.2444 O   0  0  0  0  0
    0.5820    4.9293   55.9809 O   0  0  0  0  0
   16.0016    8.9013   50.6478 O   0  0  0  0  0
   14.8850    7.5719   47.6885 O   0  0  0  0  0
   16.8927    6.6832   46.9603 O   0  0  0  0  0
   18.9779    7.4677   45.1443 O   0  0  0  0  0
   17.9704    4.0792   47.4853 O   0  0  0  0  0
   15.0990    3.9445   45.3448 O   0  0  0  0  0
   15.4126    5.0240   48.7512 O   0  0  0  0  0
   16.0387   11.1249   44.5969 O   0  0  0  0  0
   16.3089   13.7144   49.7239 O   0  0  0  0  0
   14.9503   14.5202   48.0298 O   0  0  0  0  0
   12.1467   19.8418   50.0480 O   0  0  0  0  0
   13.0515   12.6367   49.1564 N   0  0  0  0  0
   10.5273   11.8745   51.0703 N   0  0  0  0  0
    9.8059    9.2691   52.2129 N   0  0  0  0  0
    4.9548    5.5108   54.8309 N   0  0  0  0  0
    2.8239    3.9380   57.3544 N   0  0  0  0  0
    2.3113    6.7372   59.4571 N   0  0  0  0  0
    7.2429    6.9808   52.3646 N   0  0  0  0  0
   14.1766   18.3749   51.0350 N   0  0  0  0  0
  2  1  1  0  0  0
  2  3  1  0  0  0
  2 85  1  0  0  0
  3  4  1  0  0  0
  3119  1  0  0  0
  4  5  1  0  0  0
  4127  1  0  0  0
  5  6  1  0  0  0
  6 85  1  0  0  0
  6 86  1  0  0  0
  7 86  1  0  0  0
  7  8  1  0  0  0
  7 36  1  0  0  0
  8  9  1  0  0  0
  8121  1  0  0  0
  9120  1  0  0  0
 10120  1  0  0  0
 10 11  1  0  0  0
 10 83  1  0  0  0
 12 13  1  0  0  0
 13116  1  0  0  0
 14 15  1  0  0  0
 15110  1  0  0  0
 16 17  1  0  0  0
 16 11  1  0  0  0
 18 19  1  0  0  0
 18109  1  0  0  0
 20 21  1  0  0  0
 22 17  1  0  0  0
 23 21  1  0  0  0
 23 24  1  0  0  0
 23122  1  0  0  0
 24121  1  0  0  0
 26 25  1  0  0  0
 26 27  1  0  0  0
 26126  1  0  0  0
 28 29  1  0  0  0
 29101  1  0  0  0
 30 31  1  0  0  0
 30 91  1  0  0  0
 31 90  1  0  0  0
 32 27  1  0  0  0
 33 90  1  0  0  0
 34 35  1  0  0  0
 36 37  1  0  0  0
 38 33  1  0  0  0
 39 91  1  0  0  0
 39 40  1  0  0  0
 39 92  1  0  0  0
 40 41  1  0  0  0
 40100  1  0  0  0
 41 42  1  0  0  0
 41 99  1  0  0  0
 42 43  1  0  0  0
 42 98  1  0  0  0
 43 92  1  0  0  0
 43 44  1  0  0  0
 44 93  1  0  0  0
 45 93  1  0  0  0
 45 46  1  0  0  0
 45 94  1  0  0  0
 46 47  1  0  0  0
 46 97  1  0  0  0
 47 48  1  0  0  0
 47 96  1  0  0  0
 48 49  1  0  0  0
 48 95  1  0  0  0
 49 94  1  0  0  0
 49 50  1  0  0  0
 51101  1  0  0  0
 52 53  1  0  0  0
 54 55  1  0  0  0
 56 51  1  0  0  0
 57 54  1  0  0  0
 57 58  1  0  0  0
 57108  1  0  0  0
 58 59  1  0  0  0
 58124  1  0  0  0
 59123  1  0  0  0
 60123  1  0  0  0
 60 61  1  0  0  0
 60 76  1  0  0  0
 62 63  1  0  0  0
 63104  1  0  0  0
 64 65  1  0  0  0
 65103  1  0  0  0
 66 61  1  0  0  0
 67 64  1  0  0  0
 68104  1  0  0  0
 69 70  1  0  0  0
 69106  1  0  0  0
 71 72  1  0  0  0
 73 68  1  0  0  0
 74 72  1  0  0  0
 74 75  1  0  0  0
 74125  1  0  0  0
 75124  1  0  0  0
 76126  1  0  0  0
 77110  1  0  0  0
 77 78  1  0  0  0
 77111  1  0  0  0
 78 79  1  0  0  0
 78115  1  0  0  0
 79 80  1  0  0  0
 79114  1  0  0  0
 80 81  1  0  0  0
 80113  1  0  0  0
 81111  1  0  0  0
 81 82  1  0  0  0
 82112  1  0  0  0
 83118  1  0  0  0
 84118  1  0  0  0
122 25  1  0  0  0
  9 87  2  0  0  0
 11 12  2  0  0  0
 13 14  2  0  0  0
 15 16  2  0  0  0
 17 18  2  0  0  0
 19 20  2  0  0  0
 21 22  2  0  0  0
 24 88  2  0  0  0
 25 89  2  0  0  0
 27 28  2  0  0  0
 29 30  2  0  0  0
 31 32  2  0  0  0
 33 34  2  0  0  0
 35 36  2  0  0  0
 37 38  2  0  0  0
 51 52  2  0  0  0
 53 54  2  0  0  0
 55 56  2  0  0  0
 59102  2  0  0  0
 61 62  2  0  0  0
 63 64  2  0  0  0
 65 66  2  0  0  0
 68 69  2  0  0  0
 70 71  2  0  0  0
 72 73  2  0  0  0
 75105  2  0  0  0
 76107  2  0  0  0
 83117  2  0  0  0
M  END
> <rmsd>
0.64841944

$$$$
MolPort-047-659-729 PubChem-16132273 PubChem-16132274


127141  0  0  0  0  0  0  0  0999 V2000
   13.0075   18.7167   53.3722 C   0  0  0  0  0
   12.4305   18.0757   52.1130 C   0  0  0  0  0
   13.4485   17.9815   50.9665 C   0  0  0  0  0
   14.5752   16.9835   51.2789 C   0  0  0  0  0
   14.1140   15.9182   52.2712 C   0  0  0  0  0
   12.5931   15.6926   52.2197 C   0  0  0  0  0
   11.5885   13.8717   51.4831 C   0  0  0  0  0
   12.2306   12.6066   50.9019 C   0  0  0  0  0
   13.7162   12.5422   50.9918 C   0  0  0  0  0
   15.8288   11.5617   50.0117 C   0  0  0  0  0
   16.1587   10.4891   49.0004 C   0  0  0  0  0
   16.7887   10.8284   47.7975 C   0  0  0  0  0
   17.1685    9.8408   46.8867 C   0  0  0  0  0
   16.9421    8.4991   47.1835 C   0  0  0  0  0
   16.2914    8.1273   48.3710 C   0  0  0  0  0
   15.8521    9.1304   49.2647 C   0  0  0  0  0
   15.0149    8.7507   50.4193 C   0  0  0  0  0
   15.5735    8.2529   51.6080 C   0  0  0  0  0
   14.7367    7.9239   52.6812 C   0  0  0  0  0
   13.3512    8.1051   52.5852 C   0  0  0  0  0
   12.7851    8.6246   51.4071 C   0  0  0  0  0
   13.6321    8.9175   50.3245 C   0  0  0  0  0
   11.3013    8.9372   51.2992 C   0  0  0  0  0
   11.1560   10.3292   50.7646 C   0  0  0  0  0
    9.2401    8.8426   52.7941 C   0  0  0  0  0
    8.3542    8.0403   51.8668 C   0  0  0  0  0
    7.1806    8.8229   51.3055 C   0  0  0  0  0
    5.9113    8.2450   51.1919 C   0  0  0  0  0
    4.8402    8.9489   50.6302 C   0  0  0  0  0
    5.0278   10.2553   50.1487 C   0  0  0  0  0
    6.2987   10.8618   50.2795 C   0  0  0  0  0
    7.3627   10.1205   50.8295 C   0  0  0  0  0
    7.6348   12.9085   50.3143 C   0  0  0  0  0
    8.5005   13.4551   49.3621 C   0  0  0  0  0
    9.7583   13.9146   49.7550 C   0  0  0  0  0
   10.1421   13.8557   51.1063 C   0  0  0  0  0
    9.2254   13.4219   52.0676 C   0  0  0  0  0
    7.9736   12.9605   51.6778 C   0  0  0  0  0
    4.0235   12.0199   48.7041 C   0  0  0  0  0
    3.1562   13.1712   49.2313 C   0  0  0  0  0
    2.4309   13.9211   48.1042 C   0  0  0  0  0
    3.2374   13.9503   46.8004 C   0  0  0  0  0
    3.9931   12.6343   46.5361 C   0  0  0  0  0
    3.7661   12.1832   45.0989 C   0  0  0  0  0
    1.9547   12.2573   43.8196 C   0  0  0  0  0
    0.6011   12.8923   44.1641 C   0  0  0  0  0
   -0.3367   12.8852   42.9457 C   0  0  0  0  0
    0.4430   13.0461   41.6405 C   0  0  0  0  0
    1.5487   11.9587   41.5642 C   0  0  0  0  0
    2.8299   12.3961   40.8599 C   0  0  0  0  0
    3.1002    7.5210   51.5746 C   0  0  0  0  0
    2.6695    6.2191   51.2908 C   0  0  0  0  0
    2.2835    5.3680   52.3346 C   0  0  0  0  0
    2.3068    5.8193   53.6586 C   0  0  0  0  0
    2.6839    7.1441   53.9294 C   0  0  0  0  0
    3.0852    7.9864   52.8965 C   0  0  0  0  0
    2.0079    4.8672   54.7779 C   0  0  0  0  0
    3.1454    4.8795   55.8069 C   0  0  0  0  0
    4.4648    4.4733   55.2297 C   0  0  0  0  0
    6.6519    5.3511   54.1616 C   0  0  0  0  0
    7.6042    4.8590   55.2113 C   0  0  0  0  0
    7.5212    5.3476   56.5158 C   0  0  0  0  0
    8.3308    4.8356   57.5373 C   0  0  0  0  0
    9.2923    3.8594   57.2195 C   0  0  0  0  0
    9.3886    3.3699   55.9057 C   0  0  0  0  0
    8.5428    3.8671   54.9075 C   0  0  0  0  0
   10.1753    3.3087   58.2915 C   0  0  0  0  0
    6.9998    5.7959   59.4123 C   0  0  0  0  0
    7.0179    6.3704   60.6916 C   0  0  0  0  0
    5.8416    6.8728   61.2609 C   0  0  0  0  0
    4.6358    6.8015   60.5602 C   0  0  0  0  0
    4.5948    6.2231   59.2815 C   0  0  0  0  0
    5.7734    5.7256   58.7262 C   0  0  0  0  0
    3.3240    6.1400   58.4779 C   0  0  0  0  0
    2.8465    4.7261   58.3040 C   0  0  0  0  0
    7.0987    6.6888   53.6554 C   0  0  0  0  0
   16.6873    5.7114   47.9657 C   0  0  0  0  0
   16.1164    4.3641   48.4365 C   0  0  0  0  0
   16.8135    3.2158   47.6941 C   0  0  0  0  0
   18.3316    3.4162   47.6152 C   0  0  0  0  0
   18.6478    4.8720   47.2434 C   0  0  0  0  0
   20.1445    5.1059   47.1586 C   0  0  0  0  0
   16.7447   12.7460   49.9589 C   0  0  0  0  0
   17.4212   14.8481   48.8596 C   0  0  0  0  0
   11.7880   16.8468   52.4314 O   0  0  0  0  0
   12.2129   15.0403   51.0375 O   0  0  0  0  0
   14.3124   12.8356   52.0677 O   0  0  0  0  0
   10.6852   10.5171   49.6100 O   0  0  0  0  0
    8.7470    9.4275   53.7908 O   0  0  0  0  0
    6.5053   12.1957   49.8971 O   0  0  0  0  0
    3.9264   10.9173   49.5896 O   0  0  0  0  0
    3.6048   11.6147   47.4254 O   0  0  0  0  0
    2.4816   11.6460   44.9573 O   0  0  0  0  0
    1.8182   11.2965   42.7891 O   0  0  0  0  0
    0.9856   14.3362   41.5655 O   0  0  0  0  0
   -1.3404   13.8561   43.0581 O   0  0  0  0  0
    0.8150   14.1943   44.6229 O   0  0  0  0  0
    4.1449   15.0099   46.8259 O   0  0  0  0  0
    1.1942   13.3188   47.8710 O   0  0  0  0  0
    3.9500   14.0559   49.9590 O   0  0  0  0  0
    3.5784    8.3447   50.5523 O   0  0  0  0  0
    4.7955    3.2605   55.1333 O   0  0  0  0  0
   10.3036    2.3686   55.5889 O   0  0  0  0  0
    8.1809    5.2718   58.8638 O   0  0  0  0  0
    2.4733    4.0648   59.3051 O   0  0  0  0  0
    8.2130    6.4471   61.4003 O   0  0  0  0  0
    6.7092    7.7339   54.2416 O   0  0  0  0  0
    0.8076    5.2368   55.3894 O   0  0  0  0  0
   16.9474    8.0807   51.7286 O   0  0  0  0  0
   16.0684    6.7806   48.6776 O   0  0  0  0  0
   18.0776    5.7479   48.1800 O   0  0  0  0  0
   20.3951    6.3613   46.5945 O   0  0  0  0  0
   18.9122    3.0866   48.8426 O   0  0  0  0  0
   16.2859    3.1091   46.4040 O   0  0  0  0  0
   16.3032    4.2210   49.8144 O   0  0  0  0  0
   17.7886   10.1974   45.6977 O   0  0  0  0  0
   17.6804   12.8468   50.8000 O   0  0  0  0  0
   16.5706   13.7137   48.9611 O   0  0  0  0  0
   13.9355   19.2433   50.6142 O   0  0  0  0  0
   14.4373   11.9801   49.8916 N   0  0  0  0  0
   11.6753   11.4199   51.5264 N   0  0  0  0  0
   10.6588    8.8877   52.6075 N   0  0  0  0  0
    5.3084    5.5056   54.7164 N   0  0  0  0  0
    2.8154    4.1204   57.0074 N   0  0  0  0  0
    2.2713    6.9817   59.0164 N   0  0  0  0  0
    7.9441    6.7787   52.5003 N   0  0  0  0  0
   15.7422   17.6602   51.8293 N   0  0  0  0  0
  2  1  1  0  0  0
  2  3  1  0  0  0
  2 85  1  0  0  0
  3  4  1  0  0  0
  3119  1  0  0  0
  4  5  1  0  0  0
  4127  1  0  0  0
  5  6  1  0  0  0
  6 85  1  0  0  0
  6 86  1  0  0  0
  7 86  1  0  0  0
  7  8  1  0  0  0
  7 36  1  0  0  0
  8  9  1  0  0  0
  8121  1  0  0  0
  9120  1  0  0  0
 10120  1  0  0  0
 10 11  1  0  0  0
 10 83  1  0  0  0
 12 13  1  0  0  0
 13116  1  0  0  0
 14 15  1  0  0  0
 15110  1  0  0  0
 16 17  1  0  0  0
 16 11  1  0  0  0
 18 19  1  0  0  0
 18109  1  0  0  0
 20 21  1  0  0  0
 22 17  1  0  0  0
 23 21  1  0  0  0
 23 24  1  0  0  0
 23122  1  0  0  0
 24121  1  0  0  0
 26 25  1  0  0  0
 26 27  1  0  0  0
 26126  1  0  0  0
 28 29  1  0  0  0
 29101  1  0  0  0
 30 31  1  0  0  0
 30 91  1  0  0  0
 31 90  1  0  0  0
 32 27  1  0  0  0
 33 90  1  0  0  0
 34 35  1  0  0  0
 36 37  1  0  0  0
 38 33  1  0  0  0
 39 91  1  0  0  0
 39 40  1  0  0  0
 39 92  1  0  0  0
 40 41  1  0  0  0
 40100  1  0  0  0
 41 42  1  0  0  0
 41 99  1  0  0  0
 42 43  1  0  0  0
 42 98  1  0  0  0
 43 92  1  0  0  0
 43 44  1  0  0  0
 44 93  1  0  0  0
 45 93  1  0  0  0
 45 46  1  0  0  0
 45 94  1  0  0  0
 46 47  1  0  0  0
 46 97  1  0  0  0
 47 48  1  0  0  0
 47 96  1  0  0  0
 48 49  1  0  0  0
 48 95  1  0  0  0
 49 94  1  0  0  0
 49 50  1  0  0  0
 51101  1  0  0  0
 52 53  1  0  0  0
 54 55  1  0  0  0
 56 51  1  0  0  0
 57 54  1  0  0  0
 57 58  1  0  0  0
 57108  1  0  0  0
 58 59  1  0  0  0
 58124  1  0  0  0
 59123  1  0  0  0
 60123  1  0  0  0
 60 61  1  0  0  0
 60 76  1  0  0  0
 62 63  1  0  0  0
 63104  1  0  0  0
 64 65  1  0  0  0
 65103  1  0  0  0
 66 61  1  0  0  0
 67 64  1  0  0  0
 68104  1  0  0  0
 69 70  1  0  0  0
 69106  1  0  0  0
 71 72  1  0  0  0
 73 68  1  0  0  0
 74 72  1  0  0  0
 74 75  1  0  0  0
 74125  1  0  0  0
 75124  1  0  0  0
 76126  1  0  0  0
 77110  1  0  0  0
 77 78  1  0  0  0
 77111  1  0  0  0
 78 79  1  0  0  0
 78115  1  0  0  0
 79 80  1  0  0  0
 79114  1  0  0  0
 80 81  1  0  0  0
 80113  1  0  0  0
 81111  1  0  0  0
 81 82  1  0  0  0
 82112  1  0  0  0
 83118  1  0  0  0
 84118  1  0  0  0
122 25  1  0  0  0
  9 87  2  0  0  0
 11 12  2  0  0  0
 13 14  2  0  0  0
 15 16  2  0  0  0
 17 18  2  0  0  0
 19 20  2  0  0  0
 21 22  2  0  0  0
 24 88  2  0  0  0
 25 89  2  0  0  0
 27 28  2  0  0  0
 29 30  2  0  0  0
 31 32  2  0  0  0
 33 34  2  0  0  0
 35 36  2  0  0  0
 37 38  2  0  0  0
 51 52  2  0  0  0
 53 54  2  0  0  0
 55 56  2  0  0  0
 59102  2  0  0  0
 61 62  2  0  0  0
 63 64  2  0  0  0
 65 66  2  0  0  0
 68 69  2  0  0  0
 70 71  2  0  0  0
 72 73  2  0  0  0
 75105  2  0  0  0
 76107  2  0  0  0
 83117  2  0  0  0
M  END
> <rmsd>
0.598888695

$$$$
MolPort-047-916-160 PubChem-133564507


 87 96  0  0  0  0  0  0  0  0999 V2000
   -2.8374   18.5256   37.0086 C   0  0  0  0  0
   -3.6363   18.1222   38.2402 C   0  0  0  0  0
   -4.9325   17.3715   37.8940 C   0  0  0  0  0
   -4.6138   15.9532   37.4266 C   0  0  0  0  0
   -3.6966   15.2514   38.4178 C   0  0  0  0  0
   -2.4883   16.1560   38.6898 C   0  0  0  0  0
   -1.9937   15.5077   40.8471 C   0  0  0  0  0
   -2.5370   14.1201   41.2120 C   0  0  0  0  0
   -0.5148   13.4722   42.2424 C   0  0  0  0  0
    0.1557   14.8217   41.9681 C   0  0  0  0  0
   -0.8811   15.9267   41.8065 C   0  0  0  0  0
   -1.1151   11.9940   43.8593 C   0  0  0  0  0
    0.2029   11.2424   43.9359 C   0  0  0  0  0
    0.1241    9.9692   43.0756 C   0  0  0  0  0
    1.2811    9.0243   43.3776 C   0  0  0  0  0
    2.3946    9.7706   44.1167 C   0  0  0  0  0
    1.8378   10.4409   45.3994 C   0  0  0  0  0
    2.0228    9.8066   47.8105 C   0  0  0  0  0
    2.4485    8.7104   48.7832 C   0  0  0  0  0
    1.2118    7.8423   49.0915 C   0  0  0  0  0
    0.7321    7.0154   47.9005 C   0  0  0  0  0
    1.8315    6.1144   47.3443 C   0  0  0  0  0
    3.0943    6.9276   47.0443 C   0  0  0  0  0
    3.6138    7.8289   48.1935 C   0  0  0  0  0
    4.3432    6.9816   49.2378 C   0  0  0  0  0
    5.1537    5.9940   48.8032 C   0  0  0  0  0
    5.9267    5.1812   49.7760 C   0  0  0  0  0
    4.9750    4.7244   50.8842 C   0  0  0  0  0
    5.6426    3.7326   51.8613 C   0  0  0  0  0
    4.5504    3.0327   52.6839 C   0  0  0  0  0
    5.1270    2.0825   53.7208 C   0  0  0  0  0
    6.0787    2.7952   54.6815 C   0  0  0  0  0
    7.1915    3.6061   53.9677 C   0  0  0  0  0
    6.6191    4.4863   52.8156 C   0  0  0  0  0
    6.0975    5.8712   53.2780 C   0  0  0  0  0
    4.5958    6.0797   53.0382 C   0  0  0  0  0
    4.1956    5.9156   51.5551 C   0  0  0  0  0
    4.3249    7.2795   50.7416 C   0  0  0  0  0
    3.2052    8.2624   51.1410 C   0  0  0  0  0
    2.9207    9.3420   50.0958 C   0  0  0  0  0
    5.6433    7.9884   51.0592 C   0  0  0  0  0
    2.7311    5.4813   51.5709 C   0  0  0  0  0
    7.9482    4.4651   54.9829 C   0  0  0  0  0
    8.2276    2.6275   53.3887 C   0  0  0  0  0
    5.3820    2.7185   56.7842 C   0  0  0  0  0
    4.2224    3.0652   57.7219 C   0  0  0  0  0
    4.2328    2.0870   58.9165 C   0  0  0  0  0
    5.6419    1.9655   59.5096 C   0  0  0  0  0
    6.6615    1.7872   58.3811 C   0  0  0  0  0
    2.1834    4.1086   57.4948 C   0  0  0  0  0
    2.5857    5.4736   56.9170 C   0  0  0  0  0
    1.5524    6.5169   57.3363 C   0  0  0  0  0
    1.1919    6.4235   58.8314 C   0  0  0  0  0
    0.9831    4.9707   59.2800 C   0  0  0  0  0
   -0.3803    4.4146   58.8666 C   0  0  0  0  0
    6.3709    2.6598   51.0435 C   0  0  0  0  0
    4.6900    8.7237   47.5803 C   0  0  0  0  0
    1.3317    5.5249   46.0400 C   0  0  0  0  0
    2.1253    4.9599   48.2922 C   0  0  0  0  0
   -3.4619   14.1469   42.4219 C   0  0  0  0  0
   -2.8480   17.4335   39.1880 O   0  0  0  0  0
   -1.5273   15.5151   39.5098 O   0  0  0  0  0
   -1.5314   13.1301   41.3067 O   0  0  0  0  0
   -0.2841   17.1108   41.3771 O   0  0  0  0  0
    0.9822   14.7210   40.8464 O   0  0  0  0  0
   -0.9333   13.3666   43.5831 O   0  0  0  0  0
    0.4949   10.9143   45.2751 O   0  0  0  0  0
    1.8887    9.4855   46.4565 O   0  0  0  0  0
    1.7526   10.9725   48.2175 O   0  0  0  0  0
    8.6927    1.7387   54.3583 O   0  0  0  0  0
    5.3809    3.5392   55.6464 O   0  0  0  0  0
    6.5968    2.8640   57.4825 O   0  0  0  0  0
    5.9515    3.1074   60.2546 O   0  0  0  0  0
    3.8062    0.8149   58.5111 O   0  0  0  0  0
    2.9911    3.0387   57.0361 O   0  0  0  0  0
    2.0583    4.1266   58.9090 O   0  0  0  0  0
   -1.3954    5.0428   59.6018 O   0  0  0  0  0
    2.1917    7.0180   59.6090 O   0  0  0  0  0
    0.3993    6.3904   56.5506 O   0  0  0  0  0
    3.8500    5.8599   57.3773 O   0  0  0  0  0
    3.4621    8.9162   44.3947 O   0  0  0  0  0
    0.8047    7.9795   44.1635 O   0  0  0  0  0
    0.1315   10.3087   41.7169 O   0  0  0  0  0
   -4.1384   12.9338   42.5250 O   0  0  0  0  0
   -3.2514   14.0510   37.8687 O   0  0  0  0  0
   -5.7898   15.2167   37.2475 O   0  0  0  0  0
   -5.7707   17.3407   39.0139 O   0  0  0  0  0
  1  2  1  0  0  0
  2  3  1  0  0  0
  2 61  1  0  0  0
  3  4  1  0  0  0
  3 87  1  0  0  0
  4  5  1  0  0  0
  4 86  1  0  0  0
  5  6  1  0  0  0
  5 85  1  0  0  0
  6 61  1  0  0  0
  6 62  1  0  0  0
  7 62  1  0  0  0
  7  8  1  0  0  0
  8 63  1  0  0  0
  8 60  1  0  0  0
  9 63  1  0  0  0
  9 10  1  0  0  0
  9 66  1  0  0  0
 10 11  1  0  0  0
 10 65  1  0  0  0
 11 64  1  0  0  0
 11  7  1  0  0  0
 12 66  1  0  0  0
 12 13  1  0  0  0
 13 14  1  0  0  0
 13 67  1  0  0  0
 14 15  1  0  0  0
 14 83  1  0  0  0
 15 16  1  0  0  0
 15 82  1  0  0  0
 16 17  1  0  0  0
 16 81  1  0  0  0
 17 67  1  0  0  0
 17 68  1  0  0  0
 18 68  1  0  0  0
 19 18  1  0  0  0
 19 20  1  0  0  0
 20 21  1  0  0  0
 21 22  1  0  0  0
 22 23  1  0  0  0
 22 58  1  0  0  0
 22 59  1  0  0  0
 23 24  1  0  0  0
 24 25  1  0  0  0
 24 57  1  0  0  0
 24 19  1  0  0  0
 27 26  1  0  0  0
 27 28  1  0  0  0
 28 29  1  0  0  0
 29 30  1  0  0  0
 29 56  1  0  0  0
 30 31  1  0  0  0
 31 32  1  0  0  0
 32 33  1  0  0  0
 32 71  1  0  0  0
 33 34  1  0  0  0
 33 43  1  0  0  0
 33 44  1  0  0  0
 34 35  1  0  0  0
 34 29  1  0  0  0
 35 36  1  0  0  0
 36 37  1  0  0  0
 37 38  1  0  0  0
 37 42  1  0  0  0
 37 28  1  0  0  0
 38 39  1  0  0  0
 38 41  1  0  0  0
 38 25  1  0  0  0
 39 40  1  0  0  0
 40 19  1  0  0  0
 44 70  1  0  0  0
 45 71  1  0  0  0
 45 46  1  0  0  0
 45 72  1  0  0  0
 46 47  1  0  0  0
 46 75  1  0  0  0
 47 48  1  0  0  0
 47 74  1  0  0  0
 48 49  1  0  0  0
 48 73  1  0  0  0
 49 72  1  0  0  0
 50 75  1  0  0  0
 50 51  1  0  0  0
 50 76  1  0  0  0
 51 52  1  0  0  0
 51 80  1  0  0  0
 52 53  1  0  0  0
 52 79  1  0  0  0
 53 54  1  0  0  0
 53 78  1  0  0  0
 54 76  1  0  0  0
 54 55  1  0  0  0
 55 77  1  0  0  0
 60 84  1  0  0  0
 18 69  2  0  0  0
 25 26  2  0  0  0
M  END
> <rmsd>
0.709995925

$$$$
MolPort-047-916-160 PubChem-133564507


 87 96  0  0  0  0  0  0  0  0999 V2000
   -2.5732   19.8004   38.3474 C   0  0  0  0  0
   -3.3688   19.3410   39.5614 C   0  0  0  0  0
   -4.6894   18.6495   39.1855 C   0  0  0  0  0
   -4.4161   17.2559   38.6246 C   0  0  0  0  0
   -3.5075   16.4674   39.5569 C   0  0  0  0  0
   -2.2713   17.3196   39.8698 C   0  0  0  0  0
   -1.7701   16.5215   41.9748 C   0  0  0  0  0
   -2.3479   15.1287   42.2579 C   0  0  0  0  0
   -0.3330   14.3615   43.2180 C   0  0  0  0  0
    0.3719   15.7070   43.0213 C   0  0  0  0  0
   -0.6353   16.8479   42.9440 C   0  0  0  0  0
   -0.9558   12.7998   44.7456 C   0  0  0  0  0
    0.3414   12.0092   44.7567 C   0  0  0  0  0
    0.2170   10.7962   43.8183 C   0  0  0  0  0
    1.3505    9.8028   44.0443 C   0  0  0  0  0
    2.4930   10.4697   44.8145 C   0  0  0  0  0
    1.9700   11.0716   46.1445 C   0  0  0  0  0
    2.1650   10.2797   48.5076 C   0  0  0  0  0
    2.5709    9.1124   49.4030 C   0  0  0  0  0
    1.3140    8.2603   49.6719 C   0  0  0  0  0
    0.7976    7.5247   48.4372 C   0  0  0  0  0
    1.8649    6.6315   47.8103 C   0  0  0  0  0
    3.1464    7.4274   47.5458 C   0  0  0  0  0
    3.7041    8.2389   48.7430 C   0  0  0  0  0
    4.4215    7.3070   49.7215 C   0  0  0  0  0
    5.1989    6.3275   49.2143 C   0  0  0  0  0
    5.9600    5.4335   50.1231 C   0  0  0  0  0
    5.0087    4.9329   51.2125 C   0  0  0  0  0
    5.6595    3.8629   52.1157 C   0  0  0  0  0
    4.5577    3.1419   52.9066 C   0  0  0  0  0
    5.1193    2.1120   53.8732 C   0  0  0  0  0
    6.1016    2.7357   54.8646 C   0  0  0  0  0
    7.2284    3.5598   54.1890 C   0  0  0  0  0
    6.6677    4.5271   53.1029 C   0  0  0  0  0
    6.1905    5.8933   53.6593 C   0  0  0  0  0
    4.6926    6.1576   53.4532 C   0  0  0  0  0
    4.2709    6.0996   51.9682 C   0  0  0  0  0
    4.4290    7.5087   51.2413 C   0  0  0  0  0
    3.3419    8.4942   51.7173 C   0  0  0  0  0
    3.0758    9.6457   50.7467 C   0  0  0  0  0
    5.7703    8.1596   51.5857 C   0  0  0  0  0
    2.7950    5.7052   51.9758 C   0  0  0  0  0
    8.0206    4.3313   55.2466 C   0  0  0  0  0
    8.2299    2.5923   53.5353 C   0  0  0  0  0
    5.4274    2.5437   56.9672 C   0  0  0  0  0
    4.2888    2.8613   57.9404 C   0  0  0  0  0
    4.2856    1.8088   59.0702 C   0  0  0  0  0
    5.6975    1.6113   59.6355 C   0  0  0  0  0
    6.6985    1.4778   58.4846 C   0  0  0  0  0
    2.2774    3.9722   57.8072 C   0  0  0  0  0
    2.7112    5.3599   57.3121 C   0  0  0  0  0
    1.7124    6.4020   57.8105 C   0  0  0  0  0
    1.3667    6.2231   59.3013 C   0  0  0  0  0
    1.1224    4.7508   59.6594 C   0  0  0  0  0
   -0.2607    4.2597   59.2297 C   0  0  0  0  0
    6.3479    2.8251   51.2218 C   0  0  0  0  0
    4.7979    9.1415   48.1737 C   0  0  0  0  0
    1.3336    6.1403   46.4780 C   0  0  0  0  0
    2.1370    5.4111   48.6789 C   0  0  0  0  0
   -3.2577   15.1033   43.4793 C   0  0  0  0  0
   -2.5892   18.5720   40.4530 O   0  0  0  0  0
   -1.3192   16.6016   40.6346 O   0  0  0  0  0
   -1.3694   14.1076   42.2761 O   0  0  0  0  0
   -0.0103   18.0403   42.5828 O   0  0  0  0  0
    1.1823   15.6556   41.8845 O   0  0  0  0  0
   -0.7387   14.1818   44.5548 O   0  0  0  0  0
    0.6395   11.5884   46.0684 O   0  0  0  0  0
    2.0062   10.0495   47.1379 O   0  0  0  0  0
    1.9323   11.4241   48.9915 O   0  0  0  0  0
    8.6811    1.6311   54.4401 O   0  0  0  0  0
    5.4361    3.4352   55.8840 O   0  0  0  0  0
    6.6537    2.6112   57.6571 O   0  0  0  0  0
    6.0475    2.6944   60.4474 O   0  0  0  0  0
    3.8188    0.5772   58.5904 O   0  0  0  0  0
    3.0495    2.9122   57.2708 O   0  0  0  0  0
    2.1692    3.9032   59.2212 O   0  0  0  0  0
   -1.2492    4.8670   60.0168 O   0  0  0  0  0
    2.3917    6.7393   60.1018 O   0  0  0  0  0
    0.5473    6.3575   57.0338 O   0  0  0  0  0
    3.9910    5.6814   57.7791 O   0  0  0  0  0
    3.5392    9.5705   45.0234 O   0  0  0  0  0
    0.8540    8.7233   44.7685 O   0  0  0  0  0
    0.2183   11.2216   42.4841 O   0  0  0  0  0
   -3.9667   13.9050   43.5141 O   0  0  0  0  0
   -3.1025   15.2929   38.9268 O   0  0  0  0  0
   -5.6142   16.5646   38.4148 O   0  0  0  0  0
   -5.5151   18.5702   40.3122 O   0  0  0  0  0
  1  2  1  0  0  0
  2  3  1  0  0  0
  2 61  1  0  0  0
  3  4  1  0  0  0
  3 87  1  0  0  0
  4  5  1  0  0  0
  4 86  1  0  0  0
  5  6  1  0  0  0
  5 85  1  0  0  0
  6 61  1  0  0  0
  6 62  1  0  0  0
  7 62  1  0  0  0
  7  8  1  0  0  0
  8 63  1  0  0  0
  8 60  1  0  0  0
  9 63  1  0  0  0
  9 10  1  0  0  0
  9 66  1  0  0  0
 10 11  1  0  0  0
 10 65  1  0  0  0
 11 64  1  0  0  0
 11  7  1  0  0  0
 12 66  1  0  0  0
 12 13  1  0  0  0
 13 14  1  0  0  0
 13 67  1  0  0  0
 14 15  1  0  0  0
 14 83  1  0  0  0
 15 16  1  0  0  0
 15 82  1  0  0  0
 16 17  1  0  0  0
 16 81  1  0  0  0
 17 67  1  0  0  0
 17 68  1  0  0  0
 18 68  1  0  0  0
 19 18  1  0  0  0
 19 20  1  0  0  0
 20 21  1  0  0  0
 21 22  1  0  0  0
 22 23  1  0  0  0
 22 58  1  0  0  0
 22 59  1  0  0  0
 23 24  1  0  0  0
 24 25  1  0  0  0
 24 57  1  0  0  0
 24 19  1  0  0  0
 27 26  1  0  0  0
 27 28  1  0  0  0
 28 29  1  0  0  0
 29 30  1  0  0  0
 29 56  1  0  0  0
 30 31  1  0  0  0
 31 32  1  0  0  0
 32 33  1  0  0  0
 32 71  1  0  0  0
 33 34  1  0  0  0
 33 43  1  0  0  0
 33 44  1  0  0  0
 34 35  1  0  0  0
 34 29  1  0  0  0
 35 36  1  0  0  0
 36 37  1  0  0  0
 37 38  1  0  0  0
 37 42  1  0  0  0
 37 28  1  0  0  0
 38 39  1  0  0  0
 38 41  1  0  0  0
 38 25  1  0  0  0
 39 40  1  0  0  0
 40 19  1  0  0  0
 44 70  1  0  0  0
 45 71  1  0  0  0
 45 46  1  0  0  0
 45 72  1  0  0  0
 46 47  1  0  0  0
 46 75  1  0  0  0
 47 48  1  0  0  0
 47 74  1  0  0  0
 48 49  1  0  0  0
 48 73  1  0  0  0
 49 72  1  0  0  0
 50 75  1  0  0  0
 50 51  1  0  0  0
 50 76  1  0  0  0
 51 52  1  0  0  0
 51 80  1  0  0  0
 52 53  1  0  0  0
 52 79  1  0  0  0
 53 54  1  0  0  0
 53 78  1  0  0  0
 54 76  1  0  0  0
 54 55  1  0  0  0
 55 77  1  0  0  0
 60 84  1  0  0  0
 18 69  2  0  0  0
 25 26  2  0  0  0
M  END
> <rmsd>
0.664140999

$$$$
MolPort-044-637-490 MCULE-9440953913 PubChem-132331222


 46 47  0  0  0  0  0  0  0  0999 V2000
    8.3479    4.6069   56.0466 C   0  0  0  0  0
    7.3090    5.6665   56.1196 C   0  0  0  0  0
    5.2853    6.5591   57.2342 C   0  0  0  0  0
    4.0967    6.1110   56.3924 C   0  0  0  0  0
    3.5995    4.7207   56.8449 C   0  0  0  0  0
    3.3999    3.7645   55.6604 C   0  0  0  0  0
    2.7892    4.4625   54.4365 C   0  0  0  0  0
    3.2206    5.9311   54.3339 C   0  0  0  0  0
    2.8127    7.5594   52.8924 C   0  0  0  0  0
    2.3557    7.8109   51.4712 C   0  0  0  0  0
    2.0128    9.2839   51.3178 C   0  0  0  0  0
    1.8134    9.6582   49.8542 C   0  0  0  0  0
    3.1278    9.6297   49.0820 C   0  0  0  0  0
    4.0807   10.7230   49.5495 C   0  0  0  0  0
    3.6112   12.1097   49.1225 C   0  0  0  0  0
    4.0014   12.4063   47.6801 C   0  0  0  0  0
    3.0357   11.7740   46.6920 C   0  0  0  0  0
    1.7144   12.5251   46.6869 C   0  0  0  0  0
    0.7883   11.9641   45.6208 C   0  0  0  0  0
    1.2518   12.3526   44.2252 C   0  0  0  0  0
    1.0122   13.8366   43.9774 C   0  0  0  0  0
    1.5454   14.2857   42.6191 C   0  0  0  0  0
    0.7921   13.6355   41.4641 C   0  0  0  0  0
   -0.5252   14.3015   41.2381 C   0  0  0  0  0
    2.7440    4.8200   58.8970 C   0  0  0  0  0
    1.8152    5.7566   59.6850 C   0  0  0  0  0
    1.3910    5.1629   61.0371 C   0  0  0  0  0
    2.4695    4.2714   61.6740 C   0  0  0  0  0
    3.3093    3.5223   60.6250 C   0  0  0  0  0
    3.5748    2.0978   61.0771 C   0  0  0  0  0
    7.2991    6.5878   55.2608 O   0  0  0  0  0
    6.3638    5.6313   57.1458 O   0  0  0  0  0
    3.3731    6.2839   52.9918 O   0  0  0  0  0
   -1.4345   14.2281   42.1064 O   0  0  0  0  0
   -0.7537   14.9960   40.0576 O   0  0  0  0  0
    2.9078   14.0047   42.5176 O   0  0  0  0  0
    1.2293    7.0320   51.2001 O   0  0  0  0  0
    4.4252    6.1447   55.0240 O   0  0  0  0  0
    1.3987    4.3935   54.4997 O   0  0  0  0  0
    4.6250    3.1963   55.3081 O   0  0  0  0  0
    2.3960    4.8534   57.5436 O   0  0  0  0  0
    4.4203    2.0965   62.1869 O   0  0  0  0  0
    2.6584    3.5034   59.3822 O   0  0  0  0  0
    3.3082    5.0477   62.4732 O   0  0  0  0  0
    0.2180    4.4246   60.8724 O   0  0  0  0  0
    2.4491    6.9830   59.8848 O   0  0  0  0  0
  1  2  1  0  0  0
  2 32  1  0  0  0
  3 32  1  0  0  0
  4  3  1  0  0  0
  4  5  1  0  0  0
  4 38  1  0  0  0
  5  6  1  0  0  0
  5 41  1  0  0  0
  6  7  1  0  0  0
  6 40  1  0  0  0
  7  8  1  0  0  0
  7 39  1  0  0  0
  8 33  1  0  0  0
  8 38  1  0  0  0
  9 33  1  0  0  0
  9 10  1  0  0  0
 10 11  1  0  0  0
 10 37  1  0  0  0
 11 12  1  0  0  0
 12 13  1  0  0  0
 13 14  1  0  0  0
 14 15  1  0  0  0
 15 16  1  0  0  0
 16 17  1  0  0  0
 17 18  1  0  0  0
 18 19  1  0  0  0
 19 20  1  0  0  0
 20 21  1  0  0  0
 21 22  1  0  0  0
 22 23  1  0  0  0
 22 36  1  0  0  0
 23 24  1  0  0  0
 24 35  1  0  0  0
 25 41  1  0  0  0
 25 26  1  0  0  0
 25 43  1  0  0  0
 26 27  1  0  0  0
 26 46  1  0  0  0
 27 28  1  0  0  0
 27 45  1  0  0  0
 28 29  1  0  0  0
 28 44  1  0  0  0
 29 30  1  0  0  0
 29 43  1  0  0  0
 30 42  1  0  0  0
  2 31  2  0  0  0
 24 34  2  0  0  0
M  END
> <rmsd>
0.71408397

$$$$
MolPort-045-902-328 MCULE-8941147511 PubChem-45927292


 41 43  0  0  0  0  0  0  0  0999 V2000
    8.7009    4.4849   54.8356 C   0  0  0  0  0
    7.9533    3.4142   55.6052 C   0  0  0  0  0
    6.7332    3.9897   56.2351 C   0  0  0  0  0
    5.0463    5.1242   57.4917 C   0  0  0  0  0
    1.9487    6.2621   56.7093 C   0  0  0  0  0
    1.2253    5.3159   55.9764 C   0  0  0  0  0
    0.7907    5.6148   54.6819 C   0  0  0  0  0
    1.0758    6.8589   54.1088 C   0  0  0  0  0
    1.8048    7.8036   54.8473 C   0  0  0  0  0
    2.2406    7.5058   56.1411 C   0  0  0  0  0
    0.8052    8.3381   52.0337 C   0  0  0  0  0
    0.2822    8.4287   50.6408 C   0  0  0  0  0
    1.3080    7.9177   49.6377 C   0  0  0  0  0
    2.4212    8.8946   49.4593 C   0  0  0  0  0
    3.1812   11.2140   48.7724 C   0  0  0  0  0
    2.5768   12.6210   48.7507 C   0  0  0  0  0
    1.5232   12.7979   47.7018 C   0  0  0  0  0
    1.8773   12.9890   46.3616 C   0  0  0  0  0
    0.8864   13.1684   45.3929 C   0  0  0  0  0
   -0.4690   13.1650   45.7562 C   0  0  0  0  0
   -0.8166   12.9847   47.1023 C   0  0  0  0  0
    0.1750   12.8057   48.0711 C   0  0  0  0  0
    4.0056   10.9332   47.5510 C   0  0  0  0  0
    4.2517    9.7898   45.3721 C   0  0  0  0  0
    4.0926   10.9441   44.4006 C   0  0  0  0  0
    5.4795    3.6079   55.9065 N   0  0  0  0  0
    4.5385    4.2414   56.6042 N   0  0  0  0  0
    4.2495    5.9324   58.3564 N   0  0  0  0  0
    0.6149    7.1272   52.7775 N   0  0  0  0  0
    2.1433   10.2079   48.9687 N   0  0  0  0  0
   -1.4899   13.3460   44.7654 N   0  0  0  0  0
    6.7267    5.1590   57.4521 S   0  0  0  0  0
    2.5201    5.8867   58.3249 S   0  0  0  0  0
    2.0501    4.5219   58.7437 O   0  0  0  0  0
    1.9759    6.9040   59.2877 O   0  0  0  0  0
    1.4226    9.3190   52.5272 O   0  0  0  0  0
    3.5998    8.5522   49.7430 O   0  0  0  0  0
   -1.1863   13.5338   43.5689 O   0  0  0  0  0
   -2.8180   13.3254   45.1246 O   0  0  0  0  0
    5.1186   11.5094   47.4128 O   0  0  0  0  0
    3.5334   10.0542   46.5706 O   0  0  0  0  0
  1  2  1  0  0  0
  2  3  1  0  0  0
  3 32  1  0  0  0
  4 32  1  0  0  0
  4 28  1  0  0  0
  6  7  1  0  0  0
  8  9  1  0  0  0
  8 29  1  0  0  0
 10  5  1  0  0  0
 12 11  1  0  0  0
 12 13  1  0  0  0
 13 14  1  0  0  0
 14 30  1  0  0  0
 15 30  1  0  0  0
 15 16  1  0  0  0
 15 23  1  0  0  0
 16 17  1  0  0  0
 18 19  1  0  0  0
 20 21  1  0  0  0
 20 31  1  0  0  0
 22 17  1  0  0  0
 23 41  1  0  0  0
 24 41  1  0  0  0
 24 25  1  0  0  0
 26 27  1  0  0  0
 29 11  1  0  0  0
 31 39  1  0  0  0
 33 28  1  0  0  0
 33  5  1  0  0  0
  3 26  2  0  0  0
  4 27  2  0  0  0
  5  6  2  0  0  0
  7  8  2  0  0  0
  9 10  2  0  0  0
 11 36  2  0  0  0
 14 37  2  0  0  0
 17 18  2  0  0  0
 19 20  2  0  0  0
 21 22  2  0  0  0
 23 40  2  0  0  0
 31 38  2  0  0  0
 33 34  2  0  0  0
 33 35  2  0  0  0
M  CHG  2  31   1  39  -1
M  END
> <rmsd>
0.806647003

$$$$
MolPort-044-561-699 MCULE-8120203169 PubChem-132285210


 90 96  0  0  0  0  0  0  0  0999 V2000
   -1.8298   10.2188   64.3863 C   0  0  0  0  0
   -1.1762    9.7798   63.1264 C   0  0  0  0  0
    0.0400    8.0149   61.8947 C   0  0  0  0  0
    2.2025    8.4481   60.7958 C   0  0  0  0  0
    3.4628    9.2415   60.7526 C   0  0  0  0  0
    4.7939   10.1650   58.8734 C   0  0  0  0  0
    5.4222   11.5080   59.0480 C   0  0  0  0  0
    6.2726   13.5794   58.0002 C   0  0  0  0  0
    8.2318   14.7568   58.9038 C   0  0  0  0  0
    9.5668   14.7047   59.5542 C   0  0  0  0  0
    2.4582   11.0357   59.2798 C   0  0  0  0  0
    1.8419   11.7193   60.3374 C   0  0  0  0  0
    0.8940   12.7156   60.0927 C   0  0  0  0  0
    0.5654   13.0568   58.7819 C   0  0  0  0  0
    1.1653   12.3791   57.7176 C   0  0  0  0  0
    2.0941   11.3568   57.9508 C   0  0  0  0  0
    2.6603    9.2537   56.7796 C   0  0  0  0  0
    1.2632    8.7069   56.5544 C   0  0  0  0  0
    0.8864    6.6275   55.2606 C   0  0  0  0  0
    0.9207    5.2069   55.1786 C   0  0  0  0  0
    0.5084    4.6038   53.9752 C   0  0  0  0  0
    0.0516    5.3605   52.8999 C   0  0  0  0  0
   -0.0261    6.7469   52.9962 C   0  0  0  0  0
    0.4034    7.3732   54.1705 C   0  0  0  0  0
   -1.0259    8.8380   51.9163 C   0  0  0  0  0
   -1.6553    9.4017   50.7164 C   0  0  0  0  0
   -2.8830   10.0780   50.8334 C   0  0  0  0  0
   -3.5024   10.5219   49.6693 C   0  0  0  0  0
   -2.9620   10.3080   48.4227 C   0  0  0  0  0
   -1.7523    9.6240   48.2791 C   0  0  0  0  0
   -1.1015    9.1657   49.4383 C   0  0  0  0  0
   -3.9213   10.7671   47.3464 C   0  0  0  0  0
   -3.3365   11.9270   46.5588 C   0  0  0  0  0
   -3.1301   13.1651   47.1826 C   0  0  0  0  0
   -2.6405   14.2565   46.4610 C   0  0  0  0  0
   -2.3595   14.1319   45.0915 C   0  0  0  0  0
   -2.5467   12.8850   44.4707 C   0  0  0  0  0
   -3.0381   11.7931   45.1930 C   0  0  0  0  0
   -3.9384    9.5246   45.1286 C   0  0  0  0  0
   -4.2477    8.3987   44.3635 C   0  0  0  0  0
   -4.9603    7.3265   44.9164 C   0  0  0  0  0
   -5.3635    7.3996   46.2575 C   0  0  0  0  0
   -5.0445    8.5188   47.0296 C   0  0  0  0  0
   -4.3284    9.5911   46.4770 C   0  0  0  0  0
   -5.0068    5.9770   42.8068 C   0  0  0  0  0
   -5.1869    4.6224   42.2228 C   0  0  0  0  0
   -1.6697   15.3165   42.9978 C   0  0  0  0  0
   -1.4867   16.6405   42.3377 C   0  0  0  0  0
   -4.8011   11.1049   49.4660 C   0  0  0  0  0
    0.9985    2.9288   56.2451 C   0  0  0  0  0
    2.1520    2.1504   55.7137 C   0  0  0  0  0
    3.9734    0.5387   56.1476 C   0  0  0  0  0
    2.7846   -1.6187   56.2639 C   0  0  0  0  0
    2.2121   -2.7940   55.5556 C   0  0  0  0  0
    1.6479    4.9221   57.5973 C   0  0  0  0  0
    2.7781    4.1895   58.2470 C   0  0  0  0  0
    5.1449    3.5523   58.2763 C   0  0  0  0  0
    6.6202    3.6875   56.2997 C   0  0  0  0  0
    7.9503    4.0459   55.7348 C   0  0  0  0  0
   -1.0805   10.5837   62.1625 O   0  0  0  0  0
   -0.6813    8.4783   63.0301 O   0  0  0  0  0
    1.2935    8.6786   61.8246 O   0  0  0  0  0
    1.9619    7.5971   59.8956 O   0  0  0  0  0
    5.6130   11.9644   60.2079 O   0  0  0  0  0
    5.7635   12.2539   57.9143 O   0  0  0  0  0
    7.5547   13.5725   58.6149 O   0  0  0  0  0
    7.7253   15.8776   58.6263 O   0  0  0  0  0
    2.6152   10.6742   56.8478 O   0  0  0  0  0
    1.3233    7.2959   56.4088 O   0  0  0  0  0
   -1.0093    9.5082   52.9845 O   0  0  0  0  0
   -3.2565   10.5844   44.5313 O   0  0  0  0  0
   -5.2698    6.1758   44.1692 O   0  0  0  0  0
   -4.6533    6.9243   42.0533 O   0  0  0  0  0
   -1.9293   15.2637   44.3725 O   0  0  0  0  0
   -1.5526   14.2677   42.3078 O   0  0  0  0  0
   -5.0514   11.2275   48.1071 O   0  0  0  0  0
   -5.6220   11.4166   50.3700 O   0  0  0  0  0
    2.4216    2.1882   54.4823 O   0  0  0  0  0
    2.9236    1.3877   56.5951 O   0  0  0  0  0
    3.4268   -0.6205   55.5289 O   0  0  0  0  0
    2.6810   -1.5354   57.5190 O   0  0  0  0  0
    2.5441    3.4379   59.2312 O   0  0  0  0  0
    4.0748    4.3244   57.7502 O   0  0  0  0  0
    6.3705    3.9206   57.6554 O   0  0  0  0  0
    5.7446    3.1698   55.5598 O   0  0  0  0  0
    3.5123   10.0958   59.5715 N   0  0  0  0  0
   -0.5576    7.4868   51.8889 N   0  0  0  0  0
    1.3108    4.3594   56.2920 N   0  0  0  0  0
   -6.2594    6.0881   47.0014 Cl  0  0  0  0  0
   -2.4308   15.7888   47.2890 Cl  0  0  0  0  0
  1  2  1  0  0  0
  2 61  1  0  0  0
  3 61  1  0  0  0
  3 62  1  0  0  0
  4 62  1  0  0  0
  5  4  1  0  0  0
  5 86  1  0  0  0
  6 86  1  0  0  0
  6  7  1  0  0  0
  7 65  1  0  0  0
  8 65  1  0  0  0
  8 66  1  0  0  0
  9 66  1  0  0  0
 10  9  1  0  0  0
 12 13  1  0  0  0
 14 15  1  0  0  0
 16 68  1  0  0  0
 16 11  1  0  0  0
 17 68  1  0  0  0
 17 18  1  0  0  0
 18 69  1  0  0  0
 19 69  1  0  0  0
 20 21  1  0  0  0
 20 88  1  0  0  0
 22 23  1  0  0  0
 23 87  1  0  0  0
 24 19  1  0  0  0
 25 26  1  0  0  0
 27 28  1  0  0  0
 29 30  1  0  0  0
 31 26  1  0  0  0
 32 29  1  0  0  0
 32 33  1  0  0  0
 32 76  1  0  0  0
 32 44  1  0  0  0
 34 35  1  0  0  0
 35 90  1  0  0  0
 36 37  1  0  0  0
 36 74  1  0  0  0
 38 71  1  0  0  0
 38 33  1  0  0  0
 39 71  1  0  0  0
 40 41  1  0  0  0
 41 72  1  0  0  0
 42 43  1  0  0  0
 42 89  1  0  0  0
 44 39  1  0  0  0
 45 72  1  0  0  0
 46 45  1  0  0  0
 47 74  1  0  0  0
 48 47  1  0  0  0
 49 76  1  0  0  0
 49 28  1  0  0  0
 50 88  1  0  0  0
 50 51  1  0  0  0
 51 79  1  0  0  0
 52 79  1  0  0  0
 52 80  1  0  0  0
 53 80  1  0  0  0
 54 53  1  0  0  0
 55 88  1  0  0  0
 55 56  1  0  0  0
 56 83  1  0  0  0
 57 83  1  0  0  0
 57 84  1  0  0  0
 58 84  1  0  0  0
 59 58  1  0  0  0
 86 11  1  0  0  0
 87 25  1  0  0  0
  2 60  2  0  0  0
  4 63  2  0  0  0
  7 64  2  0  0  0
  9 67  2  0  0  0
 11 12  2  0  0  0
 13 14  2  0  0  0
 15 16  2  0  0  0
 19 20  2  0  0  0
 21 22  2  0  0  0
 23 24  2  0  0  0
 25 70  2  0  0  0
 26 27  2  0  0  0
 28 29  2  0  0  0
 30 31  2  0  0  0
 33 34  2  0  0  0
 35 36  2  0  0  0
 37 38  2  0  0  0
 39 40  2  0  0  0
 41 42  2  0  0  0
 43 44  2  0  0  0
 45 73  2  0  0  0
 47 75  2  0  0  0
 49 77  2  0  0  0
 51 78  2  0  0  0
 53 81  2  0  0  0
 56 82  2  0  0  0
 58 85  2  0  0  0
M  END
> <rmsd>
0.556949675

$$$$
MolPort-044-561-699 MCULE-8120203169 PubChem-132285210


 90 96  0  0  0  0  0  0  0  0999 V2000
   -2.2105   10.7782   63.3845 C   0  0  0  0  0
   -1.4962   10.2372   62.1993 C   0  0  0  0  0
   -0.2072    8.3868   61.1869 C   0  0  0  0  0
    1.9978    8.7510   60.1491 C   0  0  0  0  0
    3.2502    9.5557   60.0895 C   0  0  0  0  0
    4.6546   10.3259   58.1947 C   0  0  0  0  0
    5.2601   11.6882   58.2745 C   0  0  0  0  0
    6.1347   13.6692   57.0819 C   0  0  0  0  0
    8.0386   14.9517   57.9602 C   0  0  0  0  0
    9.3435   14.9778   58.6705 C   0  0  0  0  0
    2.2939   11.1954   58.4179 C   0  0  0  0  0
    1.6234   11.9622   59.3813 C   0  0  0  0  0
    0.6770   12.9184   59.0062 C   0  0  0  0  0
    0.4040   13.1356   57.6568 C   0  0  0  0  0
    1.0583   12.3737   56.6854 C   0  0  0  0  0
    1.9865   11.3902   57.0506 C   0  0  0  0  0
    2.6271    9.1990   56.1004 C   0  0  0  0  0
    1.2474    8.6137   55.8646 C   0  0  0  0  0
    0.9513    6.4211   54.7489 C   0  0  0  0  0
    1.0044    4.9996   54.7974 C   0  0  0  0  0
    0.6530    4.2848   53.6366 C   0  0  0  0  0
    0.2370    4.9349   52.4783 C   0  0  0  0  0
    0.1404    6.3230   52.4453 C   0  0  0  0  0
    0.5099    7.0586   53.5757 C   0  0  0  0  0
   -0.8321    8.2938   51.1378 C   0  0  0  0  0
   -1.4128    8.7380   49.8654 C   0  0  0  0  0
   -2.6516    9.4041   49.8669 C   0  0  0  0  0
   -3.2228    9.7324   48.6413 C   0  0  0  0  0
   -2.6246    9.4152   47.4441 C   0  0  0  0  0
   -1.4025    8.7388   47.4161 C   0  0  0  0  0
   -0.7996    8.3962   48.6394 C   0  0  0  0  0
   -3.5394    9.7616   46.2897 C   0  0  0  0  0
   -2.9322   10.8544   45.4268 C   0  0  0  0  0
   -2.7672   12.1465   45.9445 C   0  0  0  0  0
   -2.2572   13.1756   45.1492 C   0  0  0  0  0
   -1.9136   12.9326   43.8102 C   0  0  0  0  0
   -2.0595   11.6323   43.2972 C   0  0  0  0  0
   -2.5712   10.6027   44.0931 C   0  0  0  0  0
   -3.4436    8.3247   44.1947 C   0  0  0  0  0
   -3.7062    7.1301   43.5218 C   0  0  0  0  0
   -4.4315    6.1016   44.1377 C   0  0  0  0  0
   -4.8954    6.2891   45.4477 C   0  0  0  0  0
   -4.6233    7.4778   46.1287 C   0  0  0  0  0
   -3.8945    8.5064   45.5132 C   0  0  0  0  0
   -4.3687    4.5675   42.1588 C   0  0  0  0  0
   -4.5080    3.1633   41.6924 C   0  0  0  0  0
   -1.1431   13.9341   41.6502 C   0  0  0  0  0
   -0.9446   15.1959   40.8817 C   0  0  0  0  0
   -4.5171   10.2757   48.3294 C   0  0  0  0  0
    1.0584    2.8280   56.0680 C   0  0  0  0  0
    2.2428    2.0219   55.6602 C   0  0  0  0  0
    4.0598    0.4825   56.3176 C   0  0  0  0  0
    2.8900   -1.6728   56.5763 C   0  0  0  0  0
    2.3624   -2.9153   55.9529 C   0  0  0  0  0
    1.6251    4.9440   57.2614 C   0  0  0  0  0
    2.7326    4.2895   58.0237 C   0  0  0  0  0
    5.1023    3.6922   58.2142 C   0  0  0  0  0
    6.6635    3.6707   56.3000 C   0  0  0  0  0
    8.0138    3.9963   55.7638 C   0  0  0  0  0
   -1.3659   10.9525   61.1718 O   0  0  0  0  0
   -0.9838    8.9398   62.2430 O   0  0  0  0  0
    1.0411    9.0598   61.1120 O   0  0  0  0  0
    1.8069    7.8191   59.3199 O   0  0  0  0  0
    5.3937   12.2498   59.3955 O   0  0  0  0  0
    5.6441   12.3341   57.0940 O   0  0  0  0  0
    7.3879   13.7365   57.7502 O   0  0  0  0  0
    7.5333   16.0354   57.5605 O   0  0  0  0  0
    2.5639   10.6190   56.0378 O   0  0  0  0  0
    1.3290    7.1964   55.8500 O   0  0  0  0  0
   -0.8707    9.0575   52.1407 O   0  0  0  0  0
   -2.7468    9.3363   43.5345 O   0  0  0  0  0
   -4.6949    4.8841   43.4849 O   0  0  0  0  0
   -3.9918    5.4482   41.3389 O   0  0  0  0  0
   -1.4636   14.0013   43.0114 O   0  0  0  0  0
   -0.9839   12.8294   41.0637 O   0  0  0  0  0
   -4.7074   10.2720   46.9554 O   0  0  0  0  0
   -5.3811   10.6554   49.1647 O   0  0  0  0  0
    2.5671    1.9528   54.4435 O   0  0  0  0  0
    2.9820    1.3529   56.6400 O   0  0  0  0  0
    3.5539   -0.7354   55.7829 O   0  0  0  0  0
    2.7292   -1.4786   57.8130 O   0  0  0  0  0
    2.4626    3.6260   59.0607 O   0  0  0  0  0
    4.0488    4.3981   57.5741 O   0  0  0  0  0
    6.3506    4.0210   57.6168 O   0  0  0  0  0
    5.8276    3.0758   55.5724 O   0  0  0  0  0
    3.3437   10.3010   58.8394 N   0  0  0  0  0
   -0.3486    6.9525   51.2533 N   0  0  0  0  0
    1.3530    4.2614   55.9989 N   0  0  0  0  0
   -5.8098    5.0369   46.2673 Cl  0  0  0  0  0
   -2.1013   14.7791   45.8436 Cl  0  0  0  0  0
  1  2  1  0  0  0
  2 61  1  0  0  0
  3 61  1  0  0  0
  3 62  1  0  0  0
  4 62  1  0  0  0
  5  4  1  0  0  0
  5 86  1  0  0  0
  6 86  1  0  0  0
  6  7  1  0  0  0
  7 65  1  0  0  0
  8 65  1  0  0  0
  8 66  1  0  0  0
  9 66  1  0  0  0
 10  9  1  0  0  0
 12 13  1  0  0  0
 14 15  1  0  0  0
 16 68  1  0  0  0
 16 11  1  0  0  0
 17 68  1  0  0  0
 17 18  1  0  0  0
 18 69  1  0  0  0
 19 69  1  0  0  0
 20 21  1  0  0  0
 20 88  1  0  0  0
 22 23  1  0  0  0
 23 87  1  0  0  0
 24 19  1  0  0  0
 25 26  1  0  0  0
 27 28  1  0  0  0
 29 30  1  0  0  0
 31 26  1  0  0  0
 32 29  1  0  0  0
 32 33  1  0  0  0
 32 76  1  0  0  0
 32 44  1  0  0  0
 34 35  1  0  0  0
 35 90  1  0  0  0
 36 37  1  0  0  0
 36 74  1  0  0  0
 38 71  1  0  0  0
 38 33  1  0  0  0
 39 71  1  0  0  0
 40 41  1  0  0  0
 41 72  1  0  0  0
 42 43  1  0  0  0
 42 89  1  0  0  0
 44 39  1  0  0  0
 45 72  1  0  0  0
 46 45  1  0  0  0
 47 74  1  0  0  0
 48 47  1  0  0  0
 49 76  1  0  0  0
 49 28  1  0  0  0
 50 88  1  0  0  0
 50 51  1  0  0  0
 51 79  1  0  0  0
 52 79  1  0  0  0
 52 80  1  0  0  0
 53 80  1  0  0  0
 54 53  1  0  0  0
 55 88  1  0  0  0
 55 56  1  0  0  0
 56 83  1  0  0  0
 57 83  1  0  0  0
 57 84  1  0  0  0
 58 84  1  0  0  0
 59 58  1  0  0  0
 86 11  1  0  0  0
 87 25  1  0  0  0
  2 60  2  0  0  0
  4 63  2  0  0  0
  7 64  2  0  0  0
  9 67  2  0  0  0
 11 12  2  0  0  0
 13 14  2  0  0  0
 15 16  2  0  0  0
 19 20  2  0  0  0
 21 22  2  0  0  0
 23 24  2  0  0  0
 25 70  2  0  0  0
 26 27  2  0  0  0
 28 29  2  0  0  0
 30 31  2  0  0  0
 33 34  2  0  0  0
 35 36  2  0  0  0
 37 38  2  0  0  0
 39 40  2  0  0  0
 41 42  2  0  0  0
 43 44  2  0  0  0
 45 73  2  0  0  0
 47 75  2  0  0  0
 49 77  2  0  0  0
 51 78  2  0  0  0
 53 81  2  0  0  0
 56 82  2  0  0  0
 58 85  2  0  0  0
M  END
> <rmsd>
0.554982007

$$$$
MolPort-044-561-699 MCULE-8120203169 PubChem-132285210


 90 96  0  0  0  0  0  0  0  0999 V2000
   -1.5218    9.5384   65.1554 C   0  0  0  0  0
   -0.7839    9.3368   63.8817 C   0  0  0  0  0
    0.2089    7.7620   62.2553 C   0  0  0  0  0
    2.5613    7.9368   61.5429 C   0  0  0  0  0
    3.9520    8.3629   61.8651 C   0  0  0  0  0
    5.7324    9.4280   60.5043 C   0  0  0  0  0
    6.5964   10.4569   61.1552 C   0  0  0  0  0
    8.0253   12.4591   60.9071 C   0  0  0  0  0
   10.0201   12.7860   62.3052 C   0  0  0  0  0
   11.1917   12.2106   63.0153 C   0  0  0  0  0
    3.6019   10.7021   60.9692 C   0  0  0  0  0
    2.9845   11.1790   62.1341 C   0  0  0  0  0
    2.3225   12.4089   62.1438 C   0  0  0  0  0
    2.2881   13.1899   60.9899 C   0  0  0  0  0
    2.8920   12.7245   59.8191 C   0  0  0  0  0
    3.5319   11.4788   59.7886 C   0  0  0  0  0
    3.8165    9.7386   58.0549 C   0  0  0  0  0
    2.3893    9.6530   57.5474 C   0  0  0  0  0
    1.7897    8.2086   55.6255 C   0  0  0  0  0
    1.5329    6.9137   55.0933 C   0  0  0  0  0
    1.1993    6.8135   53.7293 C   0  0  0  0  0
    1.0924    7.9411   52.9204 C   0  0  0  0  0
    1.2977    9.2113   53.4514 C   0  0  0  0  0
    1.6574    9.3371   54.7969 C   0  0  0  0  0
    0.9526   11.7084   53.0219 C   0  0  0  0  0
    0.6581   12.7380   52.0186 C   0  0  0  0  0
   -0.3997   13.6377   52.2424 C   0  0  0  0  0
   -0.7159   14.5440   51.2351 C   0  0  0  0  0
   -0.0413   14.5747   50.0369 C   0  0  0  0  0
    1.0017   13.6803   49.7840 C   0  0  0  0  0
    1.3459   12.7543   50.7847 C   0  0  0  0  0
   -0.6960   15.5552   49.0884 C   0  0  0  0  0
    0.2409   16.7076   48.7693 C   0  0  0  0  0
    0.6041   17.6150   49.7741 C   0  0  0  0  0
    1.4241   18.7090   49.4870 C   0  0  0  0  0
    1.8874   18.9236   48.1796 C   0  0  0  0  0
    1.5403   18.0024   47.1766 C   0  0  0  0  0
    0.7184   16.9082   47.4639 C   0  0  0  0  0
   -0.6228   15.0621   46.5955 C   0  0  0  0  0
   -1.0386   14.3255   45.4851 C   0  0  0  0  0
   -2.0425   13.3548   45.6002 C   0  0  0  0  0
   -2.6300   13.1320   46.8539 C   0  0  0  0  0
   -2.2073   13.8579   47.9696 C   0  0  0  0  0
   -1.2001   14.8276   47.8551 C   0  0  0  0  0
   -2.0377   12.7388   43.1724 C   0  0  0  0  0
   -2.4068   11.7056   42.1699 C   0  0  0  0  0
    3.1395   20.4543   46.6461 C   0  0  0  0  0
    3.7038   21.8222   46.4659 C   0  0  0  0  0
   -1.8108   15.4691   51.1208 C   0  0  0  0  0
    0.9517    4.4809   55.3714 C   0  0  0  0  0
    1.9824    3.6271   54.7178 C   0  0  0  0  0
    3.3249    1.5536   54.7626 C   0  0  0  0  0
    1.7005   -0.1700   54.0758 C   0  0  0  0  0
    1.0114   -0.9023   52.9806 C   0  0  0  0  0
    1.7864    5.7600   57.3438 C   0  0  0  0  0
    2.6156    4.6089   57.8166 C   0  0  0  0  0
    4.7562    3.4149   57.8404 C   0  0  0  0  0
    6.5230    3.7450   56.1459 C   0  0  0  0  0
    7.9718    3.9047   55.8420 C   0  0  0  0  0
   -0.3662   10.3360   63.2401 O   0  0  0  0  0
   -0.5691    8.0396   63.4137 O   0  0  0  0  0
    1.5698    8.0781   62.5098 O   0  0  0  0  0
    2.2918    7.4758   60.3995 O   0  0  0  0  0
    6.6922   10.4905   62.4120 O   0  0  0  0  0
    7.2657   11.3902   60.3557 O   0  0  0  0  0
    9.1613   11.9492   61.5936 O   0  0  0  0  0
    9.8154   14.0288   62.3616 O   0  0  0  0  0
    4.0650   11.0402   58.5731 O   0  0  0  0  0
    2.1697    8.3790   56.9606 O   0  0  0  0  0
    0.9407   12.0100   54.2464 O   0  0  0  0  0
    0.3560   16.0420   46.4319 O   0  0  0  0  0
   -2.4667   12.5902   44.4986 O   0  0  0  0  0
   -1.3745   13.7435   42.7973 O   0  0  0  0  0
    2.6583   20.0691   47.9031 O   0  0  0  0  0
    3.1391   19.6591   45.6675 O   0  0  0  0  0
   -1.8087   16.0428   49.8578 O   0  0  0  0  0
   -2.6801   15.6996   52.0036 O   0  0  0  0  0
    2.4473    3.9539   53.5919 O   0  0  0  0  0
    2.4225    2.4709   55.3687 O   0  0  0  0  0
    2.6498    0.8035   53.7591 O   0  0  0  0  0
    1.4177   -0.4340   55.2772 O   0  0  0  0  0
    2.0724    3.6870   58.4824 O   0  0  0  0  0
    3.9736    4.5511   57.5021 O   0  0  0  0  0
    6.1152    3.6265   57.4780 O   0  0  0  0  0
    5.6870    3.7049   55.2070 O   0  0  0  0  0
    4.3708    9.4837   61.0311 N   0  0  0  0  0
    1.1203   10.3518   52.6005 N   0  0  0  0  0
    1.5502    5.7079   55.9032 N   0  0  0  0  0
   -3.8920   11.9310   47.0564 Cl  0  0  0  0  0
    1.8206   19.8272   50.7793 Cl  0  0  0  0  0
  1  2  1  0  0  0
  2 61  1  0  0  0
  3 61  1  0  0  0
  3 62  1  0  0  0
  4 62  1  0  0  0
  5  4  1  0  0  0
  5 86  1  0  0  0
  6 86  1  0  0  0
  6  7  1  0  0  0
  7 65  1  0  0  0
  8 65  1  0  0  0
  8 66  1  0  0  0
  9 66  1  0  0  0
 10  9  1  0  0  0
 12 13  1  0  0  0
 14 15  1  0  0  0
 16 68  1  0  0  0
 16 11  1  0  0  0
 17 68  1  0  0  0
 17 18  1  0  0  0
 18 69  1  0  0  0
 19 69  1  0  0  0
 20 21  1  0  0  0
 20 88  1  0  0  0
 22 23  1  0  0  0
 23 87  1  0  0  0
 24 19  1  0  0  0
 25 26  1  0  0  0
 27 28  1  0  0  0
 29 30  1  0  0  0
 31 26  1  0  0  0
 32 29  1  0  0  0
 32 33  1  0  0  0
 32 76  1  0  0  0
 32 44  1  0  0  0
 34 35  1  0  0  0
 35 90  1  0  0  0
 36 37  1  0  0  0
 36 74  1  0  0  0
 38 71  1  0  0  0
 38 33  1  0  0  0
 39 71  1  0  0  0
 40 41  1  0  0  0
 41 72  1  0  0  0
 42 43  1  0  0  0
 42 89  1  0  0  0
 44 39  1  0  0  0
 45 72  1  0  0  0
 46 45  1  0  0  0
 47 74  1  0  0  0
 48 47  1  0  0  0
 49 76  1  0  0  0
 49 28  1  0  0  0
 50 88  1  0  0  0
 50 51  1  0  0  0
 51 79  1  0  0  0
 52 79  1  0  0  0
 52 80  1  0  0  0
 53 80  1  0  0  0
 54 53  1  0  0  0
 55 88  1  0  0  0
 55 56  1  0  0  0
 56 83  1  0  0  0
 57 83  1  0  0  0
 57 84  1  0  0  0
 58 84  1  0  0  0
 59 58  1  0  0  0
 86 11  1  0  0  0
 87 25  1  0  0  0
  2 60  2  0  0  0
  4 63  2  0  0  0
  7 64  2  0  0  0
  9 67  2  0  0  0
 11 12  2  0  0  0
 13 14  2  0  0  0
 15 16  2  0  0  0
 19 20  2  0  0  0
 21 22  2  0  0  0
 23 24  2  0  0  0
 25 70  2  0  0  0
 26 27  2  0  0  0
 28 29  2  0  0  0
 30 31  2  0  0  0
 33 34  2  0  0  0
 35 36  2  0  0  0
 37 38  2  0  0  0
 39 40  2  0  0  0
 41 42  2  0  0  0
 43 44  2  0  0  0
 45 73  2  0  0  0
 47 75  2  0  0  0
 49 77  2  0  0  0
 51 78  2  0  0  0
 53 81  2  0  0  0
 56 82  2  0  0  0
 58 85  2  0  0  0
M  END
> <rmsd>
0.615217447

$$$$
MolPort-046-426-503 MCULE-3479551962 MCULE-9308991691


 82 87  0  0  0  0  0  0  0  0999 V2000
   -2.4380    6.1671   39.3458 C   0  0  0  0  0
   -0.5562    7.2135   40.8346 C   0  0  0  0  0
    0.7454    7.9816   41.0198 C   0  0  0  0  0
    0.9017    8.5199   42.4406 C   0  0  0  0  0
    1.8527    7.4171   44.5039 C   0  0  0  0  0
    1.9367    6.2196   45.3900 C   0  0  0  0  0
    2.8062    5.0954   44.7951 C   0  0  0  0  0
    2.4611    4.7048   43.3868 C   0  0  0  0  0
    3.3019    4.8515   42.2882 C   0  0  0  0  0
    1.5222    3.8804   41.5770 C   0  0  0  0  0
    0.5669    3.2510   40.7821 C   0  0  0  0  0
   -0.6163    2.8152   41.4054 C   0  0  0  0  0
   -0.8139    3.0160   42.7879 C   0  0  0  0  0
    0.1682    3.6567   43.5649 C   0  0  0  0  0
    1.3280    4.0782   42.9177 C   0  0  0  0  0
    0.3526    4.7736   46.7784 C   0  0  0  0  0
    1.4772    3.9581   47.3345 C   0  0  0  0  0
    1.2305    2.4824   47.0751 C   0  0  0  0  0
    2.5186    1.7216   47.0875 C   0  0  0  0  0
    3.4696    1.9423   46.0889 C   0  0  0  0  0
    4.6653    1.2061   46.0864 C   0  0  0  0  0
    4.9122    0.2463   47.0772 C   0  0  0  0  0
    3.9578    0.0200   48.0738 C   0  0  0  0  0
    2.7604    0.7570   48.0756 C   0  0  0  0  0
    2.2142    5.4054   49.2742 C   0  0  0  0  0
    2.4592    5.5283   50.7429 C   0  0  0  0  0
    1.9171    6.8337   51.2934 C   0  0  0  0  0
    4.4503    4.2358   51.5822 C   0  0  0  0  0
    5.9430    4.1138   51.6609 C   0  0  0  0  0
    6.5104    2.7252   51.3337 C   0  0  0  0  0
    6.5611    1.7767   52.4877 C   0  0  0  0  0
    7.7933    1.5178   53.1011 C   0  0  0  0  0
    7.8641    0.6420   54.1861 C   0  0  0  0  0
    6.7078    0.0034   54.6415 C   0  0  0  0  0
    5.4889    0.2274   54.0020 C   0  0  0  0  0
    5.4100    1.1155   52.9270 C   0  0  0  0  0
    6.1669    4.4676   54.2093 C   0  0  0  0  0
    7.0368    4.9960   55.3158 C   0  0  0  0  0
    8.3651    4.2556   55.3364 C   0  0  0  0  0
    8.3134    3.3238   56.5396 C   0  0  0  0  0
    7.2206    3.8553   57.4398 C   0  0  0  0  0
    5.4678    5.6372   57.1965 C   0  0  0  0  0
    5.6504    7.0171   57.0441 C   0  0  0  0  0
    4.7732    7.9241   57.6377 C   0  0  0  0  0
    3.6939    7.4668   58.4024 C   0  0  0  0  0
    3.4876    6.0905   58.5347 C   0  0  0  0  0
    4.3513    5.1621   57.9364 C   0  0  0  0  0
   -0.2081    9.4630   42.8054 C   0  0  0  0  0
   -1.5853   11.5197   42.0969 C   0  0  0  0  0
   -2.9218   10.7781   42.1205 C   0  0  0  0  0
   -3.2029   10.0825   40.7922 C   0  0  0  0  0
   -3.5813   11.0981   39.7316 C   0  0  0  0  0
   -1.8104   12.5999   38.7068 C   0  0  0  0  0
   -1.4279   12.4272   43.2763 C   0  0  0  0  0
   -0.7133    6.6948   39.1056 S   0  0  0  0  0
    0.9698    7.4093   43.3770 N   0  0  0  0  0
    2.7180    4.3439   41.1713 N   0  0  0  0  0
    0.5961    5.7590   45.7659 N   0  0  0  0  0
    1.6427    4.1950   48.7613 N   0  0  0  0  0
    3.8831    5.4158   51.0095 N   0  0  0  0  0
    6.5330    4.7338   52.8511 N   0  0  0  0  0
    6.4343    4.7548   56.6179 N   0  0  0  0  0
    4.0430    3.7575   58.0661 N   0  0  0  0  0
    2.7999    8.3915   59.0355 N   0  0  0  0  0
   -0.4527   10.6035   41.9714 N   0  0  0  0  0
   -2.4377   11.3263   38.8553 N   0  0  0  0  0
   -0.7134   12.7489   37.8114 N   0  0  0  0  0
   -2.2379   13.6240   39.3714 N   0  0  0  0  0
    2.5831    8.4161   44.7446 O   0  0  0  0  0
   -0.8268    4.5735   47.1802 O   0  0  0  0  0
    6.1003   -0.4842   47.0623 O   0  0  0  0  0
    2.5802    6.3258   48.4914 O   0  0  0  0  0
    3.7043    3.3123   52.0091 O   0  0  0  0  0
    6.7723   -0.8704   55.7163 O   0  0  0  0  0
    5.1456    3.7729   54.4703 O   0  0  0  0  0
    3.0351    3.3524   58.9095 O   0  0  0  0  0
    4.5236    2.9250   57.2730 O   0  0  0  0  0
    1.7623    7.9260   59.8132 O   0  0  0  0  0
    2.9603    9.6235   58.9050 O   0  0  0  0  0
   -0.9185    9.2500   43.8241 O   0  0  0  0  0
   -1.4653   11.9222   44.5724 O   0  0  0  0  0
   -1.2642   13.6561   43.0962 O   0  0  0  0  0
  1 55  1  0  0  0
  2 55  1  0  0  0
  2  3  1  0  0  0
  4  3  1  0  0  0
  4 56  1  0  0  0
  4 48  1  0  0  0
  6  5  1  0  0  0
  6  7  1  0  0  0
  6 58  1  0  0  0
  7  8  1  0  0  0
  9 57  1  0  0  0
 11 12  1  0  0  0
 13 14  1  0  0  0
 15  8  1  0  0  0
 15 10  1  0  0  0
 17 16  1  0  0  0
 17 18  1  0  0  0
 17 59  1  0  0  0
 18 19  1  0  0  0
 20 21  1  0  0  0
 22 71  1  0  0  0
 22 23  1  0  0  0
 24 19  1  0  0  0
 26 25  1  0  0  0
 26 27  1  0  0  0
 26 60  1  0  0  0
 29 28  1  0  0  0
 29 30  1  0  0  0
 29 61  1  0  0  0
 30 31  1  0  0  0
 32 33  1  0  0  0
 34 74  1  0  0  0
 34 35  1  0  0  0
 36 31  1  0  0  0
 38 37  1  0  0  0
 38 39  1  0  0  0
 38 62  1  0  0  0
 39 40  1  0  0  0
 40 41  1  0  0  0
 41 62  1  0  0  0
 43 44  1  0  0  0
 45 46  1  0  0  0
 45 64  1  0  0  0
 47 63  1  0  0  0
 47 42  1  0  0  0
 48 65  1  0  0  0
 49 65  1  0  0  0
 49 50  1  0  0  0
 49 54  1  0  0  0
 50 51  1  0  0  0
 51 52  1  0  0  0
 52 66  1  0  0  0
 53 67  1  0  0  0
 54 81  1  0  0  0
 56  5  1  0  0  0
 57 10  1  0  0  0
 58 16  1  0  0  0
 59 25  1  0  0  0
 60 28  1  0  0  0
 61 37  1  0  0  0
 62 42  1  0  0  0
 63 76  1  0  0  0
 64 78  1  0  0  0
 66 53  1  0  0  0
  5 69  2  0  0  0
  8  9  2  0  0  0
 10 11  2  0  0  0
 12 13  2  0  0  0
 14 15  2  0  0  0
 16 70  2  0  0  0
 19 20  2  0  0  0
 21 22  2  0  0  0
 23 24  2  0  0  0
 25 72  2  0  0  0
 28 73  2  0  0  0
 31 32  2  0  0  0
 33 34  2  0  0  0
 35 36  2  0  0  0
 37 75  2  0  0  0
 42 43  2  0  0  0
 44 45  2  0  0  0
 46 47  2  0  0  0
 48 80  2  0  0  0
 53 68  2  0  0  0
 54 82  2  0  0  0
 63 77  2  0  0  0
 64 79  2  0  0  0
M  CHG  4  63   1  76  -1  64   1  78  -1
M  END
> <rmsd>
0.730217457

$$$$
MolPort-044-561-211 97950305 LN01284213 MCULE-1961389821 MCULE-7029435981 PubChem-124523546 ZINC000097950305


 45 45  0  0  0  0  0  0  0  0999 V2000
    7.6280    4.3491   54.9970 C   0  0  0  0  0
    6.1955    3.9738   55.1138 C   0  0  0  0  0
    3.8222    4.6528   55.6922 C   0  0  0  0  0
    3.5680    3.7499   56.9042 C   0  0  0  0  0
    3.9493    4.3862   58.2035 C   0  0  0  0  0
    3.0012    5.9047   55.7542 C   0  0  0  0  0
    0.6699    6.9610   55.4846 C   0  0  0  0  0
    0.7261    7.7502   56.7872 C   0  0  0  0  0
    0.2150    6.9055   57.9410 C   0  0  0  0  0
    0.3215    7.6675   59.2150 C   0  0  0  0  0
    0.8854    7.8415   54.2969 C   0  0  0  0  0
    2.3840    9.5537   53.0947 C   0  0  0  0  0
    1.5131   10.7714   53.1745 C   0  0  0  0  0
   -0.7759   11.8292   52.9375 C   0  0  0  0  0
   -2.0140   11.5963   52.0837 C   0  0  0  0  0
   -1.7094   11.7645   50.6329 C   0  0  0  0  0
   -2.1406   13.1615   48.5284 C   0  0  0  0  0
   -1.2998   12.4067   47.6970 C   0  0  0  0  0
   -1.1470   12.7459   46.3499 C   0  0  0  0  0
   -1.8328   13.8440   45.8140 C   0  0  0  0  0
   -2.6739   14.5974   46.6462 C   0  0  0  0  0
   -2.8257   14.2567   47.9936 C   0  0  0  0  0
   -1.1740   12.0095   54.3647 C   0  0  0  0  0
    2.3412    8.8696   51.7214 C   0  0  0  0  0
    3.2575    7.6595   51.6978 C   0  0  0  0  0
    2.7810    9.8248   50.6260 C   0  0  0  0  0
    5.8350    2.7972   54.8439 O   0  0  0  0  0
    5.1554    4.6330   58.4625 O   0  0  0  0  0
    2.9676    4.6849   59.1376 O   0  0  0  0  0
    3.5349    7.0008   56.0779 O   0  0  0  0  0
    1.0719    7.2491   60.1332 O   0  0  0  0  0
   -0.4125    8.8318   59.3980 O   0  0  0  0  0
    0.0103    7.8709   53.3918 O   0  0  0  0  0
    2.0139   11.8621   53.5580 O   0  0  0  0  0
   -0.9332   10.9549   50.0578 O   0  0  0  0  0
   -2.2692   15.1744   43.9505 O   0  0  0  0  0
   -0.8547   13.4380   43.6190 O   0  0  0  0  0
   -0.9488   13.1039   54.9426 O   0  0  0  0  0
   -1.7901   10.9762   55.0606 O   0  0  0  0  0
    5.2413    4.9526   55.5290 N   0  0  0  0  0
    1.5964    5.8281   55.4835 N   0  0  0  0  0
    2.0787    8.6279   54.1855 N   0  0  0  0  0
    0.1309   10.6967   52.8168 N   0  0  0  0  0
   -2.3218   12.8428   49.9146 N   0  0  0  0  0
   -1.6727   14.1891   44.4314 N   0  0  0  0  0
  1  2  1  0  0  0
  2 40  1  0  0  0
  3 40  1  0  0  0
  3  4  1  0  0  0
  3  6  1  0  0  0
  4  5  1  0  0  0
  5 29  1  0  0  0
  6 41  1  0  0  0
  7 41  1  0  0  0
  7  8  1  0  0  0
  7 11  1  0  0  0
  8  9  1  0  0  0
  9 10  1  0  0  0
 10 32  1  0  0  0
 11 42  1  0  0  0
 12 42  1  0  0  0
 12 13  1  0  0  0
 12 24  1  0  0  0
 13 43  1  0  0  0
 14 43  1  0  0  0
 14 15  1  0  0  0
 14 23  1  0  0  0
 15 16  1  0  0  0
 16 44  1  0  0  0
 18 19  1  0  0  0
 20 45  1  0  0  0
 20 21  1  0  0  0
 22 17  1  0  0  0
 23 39  1  0  0  0
 24 25  1  0  0  0
 24 26  1  0  0  0
 44 17  1  0  0  0
 45 37  1  0  0  0
  2 27  2  0  0  0
  5 28  2  0  0  0
  6 30  2  0  0  0
 10 31  2  0  0  0
 11 33  2  0  0  0
 13 34  2  0  0  0
 16 35  2  0  0  0
 17 18  2  0  0  0
 19 20  2  0  0  0
 21 22  2  0  0  0
 23 38  2  0  0  0
 45 36  2  0  0  0
M  CHG  2  45   1  37  -1
M  END
> <rmsd>
0.844547927

$$$$
MolPort-006-534-311 ChemDiv-V008-2450 MCULE-3884915401 PubChem-45999595 ZINC000036071314 ZINC36071314


 37 41  0  0  0  0  0  0  0  0999 V2000
   -1.0455   13.7305   42.0176 C   0  0  0  0  0
   -0.4116   12.9038   44.2596 C   0  0  0  0  0
    0.4942   11.9695   43.7333 C   0  0  0  0  0
    1.2452   11.1580   44.5873 C   0  0  0  0  0
    1.1046   11.2676   45.9799 C   0  0  0  0  0
    0.1961   12.2017   46.5000 C   0  0  0  0  0
   -0.5566   13.0124   45.6460 C   0  0  0  0  0
    1.9057   10.4233   46.8920 C   0  0  0  0  0
    2.8215    9.4911   46.3943 C   0  0  0  0  0
    3.5701    8.7248   47.2823 C   0  0  0  0  0
    3.3970    8.9015   48.6584 C   0  0  0  0  0
    4.0460    8.4162   51.0353 C   0  0  0  0  0
    4.0016    7.1112   51.8239 C   0  0  0  0  0
    5.1743    5.9299   49.9585 C   0  0  0  0  0
    5.2190    7.2275   49.1567 C   0  0  0  0  0
    6.0841    5.7669   52.2987 C   0  0  0  0  0
    5.9950    6.0824   53.7578 C   0  0  0  0  0
    4.0085    4.7326   54.4777 C   0  0  0  0  0
    3.3834    5.3436   55.6850 C   0  0  0  0  0
    2.9536    6.6894   55.6457 C   0  0  0  0  0
    2.3794    7.2895   56.7809 C   0  0  0  0  0
    2.2601    6.5096   57.9282 C   0  0  0  0  0
    1.8330    5.7247   60.0241 C   0  0  0  0  0
    2.6770    5.2182   57.9695 C   0  0  0  0  0
    3.2499    4.5900   56.8666 C   0  0  0  0  0
    6.3217    4.0132   55.1559 C   0  0  0  0  0
    7.7951    4.2391   55.2067 C   0  0  0  0  0
   -1.1717   13.7356   43.4324 O   0  0  0  0  0
    7.0414    5.0592   51.8842 O   0  0  0  0  0
    1.7384    6.8635   59.1565 O   0  0  0  0  0
    2.4384    4.6977   59.2256 O   0  0  0  0  0
    5.8477    2.9838   55.7066 O   0  0  0  0  0
    2.4888    9.8181   49.0924 N   0  0  0  0  0
    1.7702   10.5523   48.2407 N   0  0  0  0  0
    4.1548    8.1292   49.6045 N   0  0  0  0  0
    5.0894    6.2438   51.3814 N   0  0  0  0  0
    5.4518    4.9447   54.4913 N   0  0  0  0  0
  1 28  1  0  0  0
  2 28  1  0  0  0
  3  4  1  0  0  0
  5  6  1  0  0  0
  5  8  1  0  0  0
  7  2  1  0  0  0
  8 34  1  0  0  0
  9 10  1  0  0  0
 11 33  1  0  0  0
 11 35  1  0  0  0
 12 35  1  0  0  0
 12 13  1  0  0  0
 13 36  1  0  0  0
 14 36  1  0  0  0
 14 15  1  0  0  0
 15 35  1  0  0  0
 17 16  1  0  0  0
 17 37  1  0  0  0
 18 37  1  0  0  0
 18 19  1  0  0  0
 20 21  1  0  0  0
 22 30  1  0  0  0
 23 30  1  0  0  0
 23 31  1  0  0  0
 24 31  1  0  0  0
 24 22  1  0  0  0
 25 19  1  0  0  0
 27 26  1  0  0  0
 36 16  1  0  0  0
 37 26  1  0  0  0
  2  3  2  0  0  0
  4  5  2  0  0  0
  6  7  2  0  0  0
  8  9  2  0  0  0
 10 11  2  0  0  0
 16 29  2  0  0  0
 19 20  2  0  0  0
 21 22  2  0  0  0
 24 25  2  0  0  0
 26 32  2  0  0  0
 33 34  2  0  0  0
M  END
> <rmsd>
0.716687858

$$$$
MolPort-047-116-464 MCULE-3688284110 MCULE-4622848446 NSC149501 NSC350895 PubChem-16760319 PubChem-422920 PubChem-84046 PubChem-84058 PubChem-91973948


 99104  0  0  0  0  0  0  0  0999 V2000
    8.1132    4.2665   55.0987 C   0  0  0  0  0
    8.0344    4.8896   56.4532 C   0  0  0  0  0
    6.8536    4.8634   57.2291 C   0  0  0  0  0
    7.9318    6.1484   58.9093 C   0  0  0  0  0
    9.1476    5.5790   56.9581 C   0  0  0  0  0
    7.8863    6.8875   60.2188 C   0  0  0  0  0
    6.6064    6.6829   61.0486 C   0  0  0  0  0
    6.3618    5.2598   61.4445 C   0  0  0  0  0
    9.5375    7.8577   61.5754 C   0  0  0  0  0
   10.9568    7.7294   62.1276 C   0  0  0  0  0
   11.9997    7.5568   61.0613 C   0  0  0  0  0
    5.6161    4.1912   56.7801 C   0  0  0  0  0
    3.0914    4.1678   56.7377 C   0  0  0  0  0
    1.9290    4.4288   57.6985 C   0  0  0  0  0
    1.8053    5.8946   58.0346 C   0  0  0  0  0
    2.1392    6.4844   59.2320 C   0  0  0  0  0
    1.4298    7.9809   57.8659 C   0  0  0  0  0
    0.8271    3.1710   59.1966 C   0  0  0  0  0
    0.8674    1.6740   59.5556 C   0  0  0  0  0
    1.6060    1.4786   60.9053 C   0  0  0  0  0
    1.1253    2.4727   61.9668 C   0  0  0  0  0
    1.0904    3.8880   61.3797 C   0  0  0  0  0
    0.5743    4.8634   62.4340 C   0  0  0  0  0
   -0.5719   -0.0178   60.2629 C   0  0  0  0  0
   -1.6362    0.0805   61.3954 C   0  0  0  0  0
   -2.5050   -1.1828   61.4554 C   0  0  0  0  0
   -3.0411   -1.5617   60.0631 C   0  0  0  0  0
   -2.0686   -1.1621   58.9378 C   0  0  0  0  0
   -2.1979   -2.1608   57.7943 C   0  0  0  0  0
   -2.0818   -2.8368   63.2114 C   0  0  0  0  0
    2.8600    4.7490   55.3697 C   0  0  0  0  0
    3.8052    6.1394   53.4584 C   0  0  0  0  0
    4.3895    4.9672   52.6898 C   0  0  0  0  0
    4.6735    7.3989   53.3069 C   0  0  0  0  0
    4.8808    7.9061   51.8715 C   0  0  0  0  0
    5.8068    7.0355   51.0429 C   0  0  0  0  0
    3.6358    8.2797   51.1227 C   0  0  0  0  0
    2.5795   10.0026   49.4989 C   0  0  0  0  0
    1.8373    8.9191   48.6996 C   0  0  0  0  0
    1.4602    9.4523   47.3335 C   0  0  0  0  0
    1.6896   10.9897   50.1985 C   0  0  0  0  0
    0.4481   13.2034   50.0875 C   0  0  0  0  0
   -0.9825   12.7409   49.8405 C   0  0  0  0  0
   -1.3724   12.7646   48.3913 C   0  0  0  0  0
   -1.1932   13.0786   46.1675 C   0  0  0  0  0
   -2.5143   12.6273   46.1913 C   0  0  0  0  0
   -0.5137   13.4628   44.9193 C   0  0  0  0  0
   -0.2747   13.9441   42.7368 C   0  0  0  0  0
    1.0378   14.1977   43.1381 C   0  0  0  0  0
   -0.7213   14.1182   41.3517 C   0  0  0  0  0
   -2.5209   13.8170   39.5982 C   0  0  0  0  0
   -2.9731   15.2491   39.3436 C   0  0  0  0  0
   -3.4539   15.4166   37.9103 C   0  0  0  0  0
   -5.0237   14.8184   36.2907 C   0  0  0  0  0
   -6.3477   14.1356   35.9891 C   0  0  0  0  0
   -6.1879   12.6215   36.0243 C   0  0  0  0  0
   -7.4918   11.9490   35.6141 C   0  0  0  0  0
    6.8355    5.5123   58.4205 N   0  0  0  0  0
    9.0697    6.1878   58.1650 N   0  0  0  0  0
   10.3428    5.7030   56.1908 N   0  0  0  0  0
    7.3157    4.5404   62.2105 N   0  0  0  0  0
    9.0773    6.5972   61.0055 N   0  0  0  0  0
   13.3732    7.5164   61.4370 N   0  0  0  0  0
   11.0334    6.6365   63.0826 N   0  0  0  0  0
    4.3588    4.6132   57.3103 N   0  0  0  0  0
    1.9038    7.8057   59.1162 N   0  0  0  0  0
    1.3514    6.8238   57.1749 N   0  0  0  0  0
   -1.2296   -3.8264   63.7777 N   0  0  0  0  0
    3.7251    5.7720   54.8659 N   0  0  0  0  0
    3.6469    9.4880   50.3576 N   0  0  0  0  0
    1.3956   12.2329   49.5559 N   0  0  0  0  0
   -0.5636   13.1537   47.3774 N   0  0  0  0  0
   -1.1268   13.5339   43.7196 N   0  0  0  0  0
   -2.0281   13.6898   40.9639 N   0  0  0  0  0
   -4.6854   14.6728   37.6997 N   0  0  0  0  0
   -8.4929   12.1255   36.6544 N   0  0  0  0  0
    5.2971    4.6915   61.0944 O   0  0  0  0  0
   11.6858    7.4533   59.8471 O   0  0  0  0  0
    5.6550    3.2583   55.9375 O   0  0  0  0  0
    2.1013    3.6522   58.8559 O   0  0  0  0  0
    0.2461    3.9314   60.2459 O   0  0  0  0  0
    0.6048    6.1621   61.9344 O   0  0  0  0  0
    1.9638    2.4228   63.0841 O   0  0  0  0  0
    2.9936    1.5597   60.7116 O   0  0  0  0  0
   -0.4654    1.1917   59.5370 O   0  0  0  0  0
   -0.7380   -1.1349   59.4020 O   0  0  0  0  0
   -1.3848   -1.7732   56.7280 O   0  0  0  0  0
   -4.2616   -0.9340   59.8458 O   0  0  0  0  0
   -1.7496   -2.2581   61.9882 O   0  0  0  0  0
   -3.1197   -2.4832   63.8301 O   0  0  0  0  0
   -2.4580    1.1973   61.2213 O   0  0  0  0  0
    1.9135    4.3088   54.6580 O   0  0  0  0  0
    2.6422    7.5025   51.1015 O   0  0  0  0  0
    0.6783    8.4966   49.3611 O   0  0  0  0  0
    1.2152   10.7211   51.3306 O   0  0  0  0  0
    0.0462   14.6556   40.5034 O   0  0  0  0  0
    4.1505    8.4323   54.0894 O   0  0  0  0  0
   -2.8834   12.3242   47.8102 S   0  0  0  0  0
    1.1073   13.8842   44.7907 S   0  0  0  0  0
  1  2  1  0  0  0
  3 58  1  0  0  0
  3 12  1  0  0  0
  4 59  1  0  0  0
  5 60  1  0  0  0
  5  2  1  0  0  0
  6  4  1  0  0  0
  6  7  1  0  0  0
  6 62  1  0  0  0
  7  8  1  0  0  0
  8 61  1  0  0  0
  9 62  1  0  0  0
 10  9  1  0  0  0
 10 11  1  0  0  0
 10 64  1  0  0  0
 11 63  1  0  0  0
 12 65  1  0  0  0
 13 65  1  0  0  0
 13 14  1  0  0  0
 13 31  1  0  0  0
 14 15  1  0  0  0
 14 80  1  0  0  0
 16 66  1  0  0  0
 17 67  1  0  0  0
 18 80  1  0  0  0
 18 19  1  0  0  0
 18 81  1  0  0  0
 19 20  1  0  0  0
 19 85  1  0  0  0
 20 21  1  0  0  0
 20 84  1  0  0  0
 21 22  1  0  0  0
 21 83  1  0  0  0
 22 81  1  0  0  0
 22 23  1  0  0  0
 23 82  1  0  0  0
 24 85  1  0  0  0
 24 25  1  0  0  0
 24 86  1  0  0  0
 25 26  1  0  0  0
 25 91  1  0  0  0
 26 27  1  0  0  0
 26 89  1  0  0  0
 27 28  1  0  0  0
 27 88  1  0  0  0
 28 86  1  0  0  0
 28 29  1  0  0  0
 29 87  1  0  0  0
 30 89  1  0  0  0
 30 68  1  0  0  0
 31 69  1  0  0  0
 32 69  1  0  0  0
 32 33  1  0  0  0
 32 34  1  0  0  0
 34 35  1  0  0  0
 34 97  1  0  0  0
 35 36  1  0  0  0
 35 37  1  0  0  0
 37 70  1  0  0  0
 38 70  1  0  0  0
 38 39  1  0  0  0
 38 41  1  0  0  0
 39 40  1  0  0  0
 39 94  1  0  0  0
 41 71  1  0  0  0
 42 71  1  0  0  0
 42 43  1  0  0  0
 43 44  1  0  0  0
 44 98  1  0  0  0
 45 72  1  0  0  0
 45 47  1  0  0  0
 46 98  1  0  0  0
 47 99  1  0  0  0
 48 73  1  0  0  0
 48 50  1  0  0  0
 49 99  1  0  0  0
 50 74  1  0  0  0
 51 74  1  0  0  0
 51 52  1  0  0  0
 52 53  1  0  0  0
 53 75  1  0  0  0
 54 75  1  0  0  0
 54 55  1  0  0  0
 55 56  1  0  0  0
 56 57  1  0  0  0
 57 76  1  0  0  0
 67 15  1  0  0  0
  2  3  2  0  0  0
  4 58  2  0  0  0
  5 59  2  0  0  0
  8 77  2  0  0  0
 11 78  2  0  0  0
 12 79  2  0  0  0
 15 16  2  0  0  0
 17 66  2  0  0  0
 30 90  2  0  0  0
 31 92  2  0  0  0
 37 93  2  0  0  0
 41 95  2  0  0  0
 44 72  2  0  0  0
 45 46  2  0  0  0
 47 73  2  0  0  0
 48 49  2  0  0  0
 50 96  2  0  0  0
M  END
> <rmsd>
0.849189341

$$$$
MolPort-039-332-016 MCULE-5637237382 MCULE-5683730464 PubChem-77078291


 75 82  0  0  0  0  0  0  0  0999 V2000
   -0.2621    5.5566   59.0181 C   0  0  0  0  0
    0.7374    4.6776   59.7566 C   0  0  0  0  0
    2.0117    4.4649   58.9872 C   0  0  0  0  0
    3.4168    4.8530   56.9286 C   0  0  0  0  0
    3.1942    3.5743   56.1278 C   0  0  0  0  0
    4.4938    3.0900   55.5824 C   0  0  0  0  0
    6.8691    2.2392   56.1290 C   0  0  0  0  0
    7.5178    3.5844   55.7737 C   0  0  0  0  0
    7.7625    3.9650   54.4402 C   0  0  0  0  0
    8.2724    5.2276   54.1384 C   0  0  0  0  0
    8.5290    6.1370   55.1643 C   0  0  0  0  0
    8.2626    5.7926   56.4914 C   0  0  0  0  0
    7.7555    4.5284   56.7916 C   0  0  0  0  0
    6.9446    1.1970   55.0081 C   0  0  0  0  0
    8.1354    1.0087   54.2790 C   0  0  0  0  0
    8.2420   -0.0114   53.3289 C   0  0  0  0  0
    7.1683   -0.8746   53.1120 C   0  0  0  0  0
    5.9889   -0.7204   53.8447 C   0  0  0  0  0
    5.8814    0.2997   54.7944 C   0  0  0  0  0
    7.5597    1.6208   57.3447 C   0  0  0  0  0
    8.9613    1.5623   57.4153 C   0  0  0  0  0
    9.5976    0.9518   58.4997 C   0  0  0  0  0
    8.8407    0.3824   59.5206 C   0  0  0  0  0
    7.4481    0.4066   59.4551 C   0  0  0  0  0
    6.8121    1.0154   58.3698 C   0  0  0  0  0
    3.6836    5.9966   56.0051 C   0  0  0  0  0
    2.9500    7.0322   53.8108 C   0  0  0  0  0
    4.1826    6.8630   53.1662 C   0  0  0  0  0
    4.4135    7.4488   51.9175 C   0  0  0  0  0
    3.4139    8.2002   51.3014 C   0  0  0  0  0
    2.1827    8.3805   51.9461 C   0  0  0  0  0
    1.9504    7.7901   53.1927 C   0  0  0  0  0
    3.6867    8.8630   49.9875 C   0  0  0  0  0
    2.4603    9.3627   47.9098 C   0  0  0  0  0
    0.9360    9.8399   46.0035 C   0  0  0  0  0
    0.1697    9.2549   44.9917 C   0  0  0  0  0
   -0.3856   10.0426   43.9789 C   0  0  0  0  0
   -0.1828   11.4313   43.9759 C   0  0  0  0  0
    0.5942   12.0192   44.9877 C   0  0  0  0  0
    1.1451   11.2307   45.9936 C   0  0  0  0  0
    1.5748    6.4980   61.3528 C   0  0  0  0  0
    1.9075    6.9022   62.7544 C   0  0  0  0  0
    3.1695    6.1885   63.2092 C   0  0  0  0  0
    0.0642    7.5787   64.3420 C   0  0  0  0  0
   -1.8612    8.1477   65.7663 C   0  0  0  0  0
   -3.2091    8.2375   65.0606 C   0  0  0  0  0
   -3.1308    9.1303   63.8450 C   0  0  0  0  0
   -2.4274    8.9081   62.6586 C   0  0  0  0  0
   -2.5123    9.8648   61.6334 C   0  0  0  0  0
   -3.3093   11.0155   61.7947 C   0  0  0  0  0
   -4.0279   11.2201   62.9825 C   0  0  0  0  0
   -3.9153   10.2606   63.9904 C   0  0  0  0  0
   -4.5677   10.1959   65.2728 C   0  0  0  0  0
   -5.4755   11.0797   65.8535 C   0  0  0  0  0
   -5.9898   10.7531   67.1187 C   0  0  0  0  0
   -5.5942    9.5634   67.7692 C   0  0  0  0  0
   -4.6792    8.6887   67.1619 C   0  0  0  0  0
   -4.1693    9.0291   65.9047 C   0  0  0  0  0
    2.8921    3.6984   59.4612 O   0  0  0  0  0
    4.7182    3.1802   54.3430 O   0  0  0  0  0
    4.7942    6.5909   56.0572 O   0  0  0  0  0
    2.5930    8.6534   49.1037 O   0  0  0  0  0
    3.2849   10.2742   47.6183 O   0  0  0  0  0
    1.4245    9.0228   47.0310 O   0  0  0  0  0
   -0.8045   13.4820   43.0550 O   0  0  0  0  0
   -1.2812   11.6513   41.8063 O   0  0  0  0  0
    1.8260    7.2867   60.4036 O   0  0  0  0  0
    0.3893    8.7941   64.2401 O   0  0  0  0  0
   -1.0286    7.1965   65.1192 O   0  0  0  0  0
    2.2510    5.1350   57.7537 N   0  0  0  0  0
    5.4649    2.5188   56.4702 N   0  0  0  0  0
    2.6806    6.4081   55.0689 N   0  0  0  0  0
   -0.7722   12.2379   42.9440 N   0  0  0  0  0
    1.0091    5.2051   61.0925 N   0  0  0  0  0
    0.8067    6.5745   63.6478 N   0  0  0  0  0
  2  1  1  0  0  0
  2  3  1  0  0  0
  2 74  1  0  0  0
  3 70  1  0  0  0
  4 70  1  0  0  0
  4  5  1  0  0  0
  4 26  1  0  0  0
  5  6  1  0  0  0
  6 71  1  0  0  0
  7 71  1  0  0  0
  7  8  1  0  0  0
  7 14  1  0  0  0
  7 20  1  0  0  0
  9 10  1  0  0  0
 11 12  1  0  0  0
 13  8  1  0  0  0
 15 16  1  0  0  0
 17 18  1  0  0  0
 19 14  1  0  0  0
 21 22  1  0  0  0
 23 24  1  0  0  0
 25 20  1  0  0  0
 26 72  1  0  0  0
 28 29  1  0  0  0
 30 31  1  0  0  0
 32 27  1  0  0  0
 33 30  1  0  0  0
 33 62  1  0  0  0
 34 62  1  0  0  0
 34 64  1  0  0  0
 35 64  1  0  0  0
 36 37  1  0  0  0
 38 39  1  0  0  0
 38 73  1  0  0  0
 40 35  1  0  0  0
 42 41  1  0  0  0
 42 43  1  0  0  0
 42 75  1  0  0  0
 44 69  1  0  0  0
 45 69  1  0  0  0
 45 46  1  0  0  0
 46 47  1  0  0  0
 46 58  1  0  0  0
 48 49  1  0  0  0
 50 51  1  0  0  0
 52 53  1  0  0  0
 52 47  1  0  0  0
 54 55  1  0  0  0
 56 57  1  0  0  0
 58 53  1  0  0  0
 72 27  1  0  0  0
 73 66  1  0  0  0
 74 41  1  0  0  0
 75 44  1  0  0  0
  3 59  2  0  0  0
  6 60  2  0  0  0
  8  9  2  0  0  0
 10 11  2  0  0  0
 12 13  2  0  0  0
 14 15  2  0  0  0
 16 17  2  0  0  0
 18 19  2  0  0  0
 20 21  2  0  0  0
 22 23  2  0  0  0
 24 25  2  0  0  0
 26 61  2  0  0  0
 27 28  2  0  0  0
 29 30  2  0  0  0
 31 32  2  0  0  0
 34 63  2  0  0  0
 35 36  2  0  0  0
 37 38  2  0  0  0
 39 40  2  0  0  0
 41 67  2  0  0  0
 44 68  2  0  0  0
 47 48  2  0  0  0
 49 50  2  0  0  0
 51 52  2  0  0  0
 53 54  2  0  0  0
 55 56  2  0  0  0
 57 58  2  0  0  0
 73 65  2  0  0  0
M  CHG  2  73   1  66  -1
M  END
> <rmsd>
0.697428763

$$$$
MolPort-046-153-101 MCULE-8774616932 PubChem-137955117


 67 74  0  0  0  0  0  0  0  0999 V2000
    7.6705    4.4429   54.9117 C   0  0  0  0  0
    6.8171    3.5256   54.0514 C   0  0  0  0  0
    4.9910    3.1528   55.4030 C   0  0  0  0  0
    4.0558    4.5854   56.8186 C   0  0  0  0  0
    4.0136    3.8953   58.1949 C   0  0  0  0  0
    2.6436    4.0826   58.8535 C   0  0  0  0  0
    2.1936    5.5726   58.8502 C   0  0  0  0  0
    2.1668    6.1741   60.2493 C   0  0  0  0  0
    3.0844    5.7746   56.7557 C   0  0  0  0  0
    2.3829    7.1387   55.1366 C   0  0  0  0  0
    1.7072    8.3028   55.8722 C   0  0  0  0  0
    0.5268    8.8290   55.0619 C   0  0  0  0  0
    0.8773    9.0079   53.5770 C   0  0  0  0  0
    2.7134    7.5295   53.6920 C   0  0  0  0  0
    4.1595    8.5591   52.2798 C   0  0  0  0  0
    4.4025   10.0227   51.9363 C   0  0  0  0  0
    4.6131   10.1708   50.4424 C   0  0  0  0  0
    5.7758    9.3275   49.8904 C   0  0  0  0  0
    7.0963    9.9680   50.3064 C   0  0  0  0  0
    5.7524    7.8615   50.4430 C   0  0  0  0  0
    4.9700    6.8661   49.5657 C   0  0  0  0  0
    3.9003    7.5542   48.7318 C   0  0  0  0  0
    4.5327    8.5025   47.6994 C   0  0  0  0  0
    5.1880    7.6310   46.6262 C   0  0  0  0  0
    5.6899    9.3443   48.3363 C   0  0  0  0  0
    5.9180   10.7508   47.7307 C   0  0  0  0  0
    5.2029   11.0194   46.4358 C   0  0  0  0  0
    4.0519   10.4166   46.1181 C   0  0  0  0  0
    3.3641   10.7870   44.8340 C   0  0  0  0  0
    2.2371   11.7819   45.1438 C   0  0  0  0  0
    1.5094   12.2877   43.8821 C   0  0  0  0  0
    2.2598   13.5012   43.3602 C   0  0  0  0  0
    1.4600   11.2302   42.7670 C   0  0  0  0  0
    1.5184    9.8128   43.3360 C   0  0  0  0  0
    2.8766    9.5428   44.0240 C   0  0  0  0  0
    3.9363    9.2605   42.9714 C   0  0  0  0  0
    2.7435    8.2745   44.8811 C   0  0  0  0  0
    2.3504    8.5815   46.3247 C   0  0  0  0  0
    3.4212    9.4097   47.0613 C   0  0  0  0  0
    2.6730   10.1924   48.1352 C   0  0  0  0  0
    0.1002   12.6986   44.2204 C   0  0  0  0  0
    5.4212    7.7310   51.9616 C   0  0  0  0  0
    5.2013    6.2706   52.3384 C   0  0  0  0  0
    6.6053    8.2125   52.7931 C   0  0  0  0  0
    1.3734   10.3611   53.1701 C   0  0  0  0  0
    4.8965    1.6354   55.1989 C   0  0  0  0  0
    5.9699    1.1534   54.2055 C   0  0  0  0  0
    7.2096    2.0497   54.2515 C   0  0  0  0  0
    5.4351    3.7924   54.2242 O   0  0  0  0  0
    3.7554    3.6693   55.8041 O   0  0  0  0  0
    5.0134    4.4377   59.0087 O   0  0  0  0  0
    2.6121    3.4982   60.1225 O   0  0  0  0  0
    1.6096    7.4490   60.2072 O   0  0  0  0  0
    3.0088    6.3811   58.0221 O   0  0  0  0  0
    3.5329    6.7085   55.8155 O   0  0  0  0  0
    2.6193    9.3264   56.1352 O   0  0  0  0  0
   -0.5506    7.9483   55.1796 O   0  0  0  0  0
    1.5616    7.9299   52.9578 O   0  0  0  0  0
    3.7627    8.4688   53.6257 O   0  0  0  0  0
    1.2488    8.8775   42.3333 O   0  0  0  0  0
   -0.6820   13.3349   43.2619 O   0  0  0  0  0
   -0.3970   12.4537   45.3538 O   0  0  0  0  0
    2.1842   11.1082   54.0141 O   0  0  0  0  0
    1.0488   10.8286   52.0478 O   0  0  0  0  0
    5.0401    1.0038   56.4379 O   0  0  0  0  0
    6.3149   -0.1776   54.4456 O   0  0  0  0  0
    8.1197    1.6676   53.2623 O   0  0  0  0  0
  2  1  1  0  0  0
  2 49  1  0  0  0
  3 49  1  0  0  0
  3 50  1  0  0  0
  3 46  1  0  0  0
  4 50  1  0  0  0
  4  5  1  0  0  0
  5 51  1  0  0  0
  5  6  1  0  0  0
  6 52  1  0  0  0
  6  7  1  0  0  0
  7  8  1  0  0  0
  7 54  1  0  0  0
  8 53  1  0  0  0
  9 54  1  0  0  0
  9 55  1  0  0  0
  9  4  1  0  0  0
 10 55  1  0  0  0
 10 11  1  0  0  0
 11 56  1  0  0  0
 11 12  1  0  0  0
 12 57  1  0  0  0
 12 13  1  0  0  0
 13 58  1  0  0  0
 13 45  1  0  0  0
 14 58  1  0  0  0
 14 59  1  0  0  0
 14 10  1  0  0  0
 15 59  1  0  0  0
 15 16  1  0  0  0
 16 17  1  0  0  0
 17 18  1  0  0  0
 18 19  1  0  0  0
 18 20  1  0  0  0
 20 21  1  0  0  0
 20 42  1  0  0  0
 21 22  1  0  0  0
 22 23  1  0  0  0
 23 24  1  0  0  0
 23 25  1  0  0  0
 25 26  1  0  0  0
 25 18  1  0  0  0
 26 27  1  0  0  0
 29 28  1  0  0  0
 29 30  1  0  0  0
 30 31  1  0  0  0
 31 32  1  0  0  0
 31 33  1  0  0  0
 31 41  1  0  0  0
 33 34  1  0  0  0
 34 60  1  0  0  0
 34 35  1  0  0  0
 35 36  1  0  0  0
 35 37  1  0  0  0
 35 29  1  0  0  0
 37 38  1  0  0  0
 38 39  1  0  0  0
 39 40  1  0  0  0
 39 28  1  0  0  0
 39 23  1  0  0  0
 41 61  1  0  0  0
 42 43  1  0  0  0
 42 44  1  0  0  0
 42 15  1  0  0  0
 45 63  1  0  0  0
 46 65  1  0  0  0
 46 47  1  0  0  0
 47 66  1  0  0  0
 47 48  1  0  0  0
 48 67  1  0  0  0
 48  2  1  0  0  0
 27 28  2  0  0  0
 41 62  2  0  0  0
 45 64  2  0  0  0
M  END
> <rmsd>
0.850350559

$$$$
MolPort-046-594-340 MCULE-1484121044 PubChem-73817989


 72 80  0  0  0  0  0  0  0  0999 V2000
    5.0177    2.3390   63.3528 C   0  0  0  0  0
    5.2891    3.7417   62.8343 C   0  0  0  0  0
    5.7711    4.6594   63.9669 C   0  0  0  0  0
    6.0737    6.0472   63.3981 C   0  0  0  0  0
    4.9328    6.5302   62.4897 C   0  0  0  0  0
    4.5249    5.4081   61.5185 C   0  0  0  0  0
    3.9885    5.9296   59.4187 C   0  0  0  0  0
    3.3722    7.1228   58.6510 C   0  0  0  0  0
    3.4967    6.0185   56.6282 C   0  0  0  0  0
    4.2710    4.8252   57.1949 C   0  0  0  0  0
    3.8346    4.6137   58.6463 C   0  0  0  0  0
    5.2782    3.0249   56.4023 C   0  0  0  0  0
    5.1333    1.5668   56.8608 C   0  0  0  0  0
    6.2466    0.6980   56.2413 C   0  0  0  0  0
    7.5282    1.4962   56.0055 C   0  0  0  0  0
    7.1982    2.7635   55.1628 C   0  0  0  0  0
    8.0544    3.9785   55.4922 C   0  0  0  0  0
    2.5794    5.8070   54.5856 C   0  0  0  0  0
    1.4227    6.7923   54.7907 C   0  0  0  0  0
    1.8302    8.2103   54.3936 C   0  0  0  0  0
    2.6174    8.3149   53.0729 C   0  0  0  0  0
    1.9417    9.3672   52.1700 C   0  0  0  0  0
    0.4661    9.0757   51.9065 C   0  0  0  0  0
   -0.1600   10.2914   51.2406 C   0  0  0  0  0
    0.5474   10.7342   49.9481 C   0  0  0  0  0
    2.0830   10.6406   49.9806 C   0  0  0  0  0
    2.6657    9.4758   50.8248 C   0  0  0  0  0
    2.7231    8.1170   50.0915 C   0  0  0  0  0
    2.8453    6.9197   51.0031 C   0  0  0  0  0
    2.7861    6.9802   52.3446 C   0  0  0  0  0
    2.8684    5.6713   53.0931 C   0  0  0  0  0
    2.4922   10.5522   48.5155 C   0  0  0  0  0
    1.3632    9.8018   47.8219 C   0  0  0  0  0
    0.1366    9.8580   48.7455 C   0  0  0  0  0
   -0.9144   10.4473   47.8538 C   0  0  0  0  0
   -0.3863   10.7909   46.6940 C   0  0  0  0  0
   -1.1193   11.4557   45.5762 C   0  0  0  0  0
   -1.0565   10.5909   44.3244 C   0  0  0  0  0
   -1.7242   11.2453   43.1144 C   0  0  0  0  0
   -3.2071   11.5032   43.3350 C   0  0  0  0  0
   -0.9856   12.4868   42.6224 C   0  0  0  0  0
   -0.5936   14.7314   42.9417 C   0  0  0  0  0
    0.9364   14.7432   42.7599 C   0  0  0  0  0
    1.3394   14.2118   41.3893 C   0  0  0  0  0
    0.4780   14.8424   40.2998 C   0  0  0  0  0
   -1.0044   14.6621   40.6603 C   0  0  0  0  0
   -1.9211   15.1737   39.5550 C   0  0  0  0  0
   -2.3440   10.6297   48.2385 C   0  0  0  0  0
    0.2043   12.2132   49.7569 C   0  0  0  0  0
    4.0042    8.8248   53.4398 C   0  0  0  0  0
    1.8444    7.1998   58.7062 C   0  0  0  0  0
    4.1266    4.2692   62.2444 O   0  0  0  0  0
    3.4609    5.8296   60.7115 O   0  0  0  0  0
    3.8501    7.1969   57.3213 O   0  0  0  0  0
    2.5104    4.1643   58.6993 O   0  0  0  0  0
    4.0392    3.6701   56.4427 O   0  0  0  0  0
    5.8191    3.0954   55.1024 O   0  0  0  0  0
    8.1077    1.8400   57.2347 O   0  0  0  0  0
    6.4989   -0.4470   57.0060 O   0  0  0  0  0
    5.1860    1.5200   58.2563 O   0  0  0  0  0
    3.7494    6.1964   55.2620 O   0  0  0  0  0
    0.9565   10.4698   46.6353 O   0  0  0  0  0
   -1.1752   13.5674   43.4968 O   0  0  0  0  0
   -1.3296   15.3028   41.8759 O   0  0  0  0  0
   -1.7892   16.5548   39.4052 O   0  0  0  0  0
    0.7571   14.2185   39.0807 O   0  0  0  0  0
    2.6845   14.5021   41.1508 O   0  0  0  0  0
    1.5582   14.0098   43.7720 O   0  0  0  0  0
    1.4377    7.7101   59.9387 O   0  0  0  0  0
    5.3331    7.6659   61.7811 O   0  0  0  0  0
    7.2793    6.0078   62.6919 O   0  0  0  0  0
    4.7944    4.7621   64.9654 O   0  0  0  0  0
  2  1  1  0  0  0
  2  3  1  0  0  0
  2 52  1  0  0  0
  3  4  1  0  0  0
  3 72  1  0  0  0
  4  5  1  0  0  0
  4 71  1  0  0  0
  5  6  1  0  0  0
  5 70  1  0  0  0
  6 52  1  0  0  0
  6 53  1  0  0  0
  7 53  1  0  0  0
  7  8  1  0  0  0
  8 54  1  0  0  0
  8 51  1  0  0  0
  9 54  1  0  0  0
  9 10  1  0  0  0
  9 61  1  0  0  0
 10 11  1  0  0  0
 10 56  1  0  0  0
 11 55  1  0  0  0
 11  7  1  0  0  0
 12 56  1  0  0  0
 12 13  1  0  0  0
 12 57  1  0  0  0
 13 14  1  0  0  0
 13 60  1  0  0  0
 14 15  1  0  0  0
 14 59  1  0  0  0
 15 16  1  0  0  0
 15 58  1  0  0  0
 16 57  1  0  0  0
 16 17  1  0  0  0
 18 61  1  0  0  0
 18 19  1  0  0  0
 19 20  1  0  0  0
 20 21  1  0  0  0
 21 22  1  0  0  0
 21 50  1  0  0  0
 21 30  1  0  0  0
 22 23  1  0  0  0
 23 24  1  0  0  0
 24 25  1  0  0  0
 25 26  1  0  0  0
 25 49  1  0  0  0
 26 27  1  0  0  0
 26 32  1  0  0  0
 27 28  1  0  0  0
 27 22  1  0  0  0
 28 29  1  0  0  0
 31 30  1  0  0  0
 31 18  1  0  0  0
 33 32  1  0  0  0
 33 34  1  0  0  0
 33 62  1  0  0  0
 34 35  1  0  0  0
 34 25  1  0  0  0
 36 62  1  0  0  0
 37 36  1  0  0  0
 37 38  1  0  0  0
 39 38  1  0  0  0
 39 40  1  0  0  0
 39 41  1  0  0  0
 41 63  1  0  0  0
 42 63  1  0  0  0
 42 43  1  0  0  0
 42 64  1  0  0  0
 43 44  1  0  0  0
 43 68  1  0  0  0
 44 45  1  0  0  0
 44 67  1  0  0  0
 45 46  1  0  0  0
 45 66  1  0  0  0
 46 64  1  0  0  0
 46 47  1  0  0  0
 47 65  1  0  0  0
 48 35  1  0  0  0
 51 69  1  0  0  0
 29 30  2  0  0  0
 35 36  2  0  0  0
M  END
> <rmsd>
0.587420046

$$$$
MolPort-047-978-000


 75 82  0  0  0  0  0  0  0  0999 V2000
   -4.9623   19.7318   43.4307 C   0  0  0  0  0
   -4.2140   18.4663   43.8250 C   0  0  0  0  0
   -4.8677   17.1930   43.2802 C   0  0  0  0  0
   -4.7971   17.1695   41.7694 C   0  0  0  0  0
   -2.6348   15.9877   41.8266 C   0  0  0  0  0
   -3.0580   15.4035   43.1418 C   0  0  0  0  0
   -4.1318   15.9967   43.8527 C   0  0  0  0  0
   -4.4893   15.4892   45.1153 C   0  0  0  0  0
   -3.7738   14.4058   45.6132 C   0  0  0  0  0
   -2.1658   12.7349   45.6728 C   0  0  0  0  0
   -3.0082   12.7117   46.9170 C   0  0  0  0  0
   -2.9569   11.8551   48.0178 C   0  0  0  0  0
   -1.9512   10.7316   48.0788 C   0  0  0  0  0
   -2.3391    9.6340   49.0746 C   0  0  0  0  0
   -2.8117   10.2139   50.4045 C   0  0  0  0  0
   -3.8968   11.2431   50.2093 C   0  0  0  0  0
   -3.8965   12.0605   49.0586 C   0  0  0  0  0
   -4.8677   13.0958   48.9273 C   0  0  0  0  0
   -5.8232   13.2792   49.9242 C   0  0  0  0  0
   -5.8325   12.4596   51.0533 C   0  0  0  0  0
   -4.8736   11.4460   51.2047 C   0  0  0  0  0
   -4.8987   10.5979   52.4347 C   0  0  0  0  0
   -3.9506   13.7076   46.8573 C   0  0  0  0  0
   -0.1345   12.0740   49.3312 C   0  0  0  0  0
    1.3026   12.4496   49.3974 C   0  0  0  0  0
    3.2409   11.8281   50.2465 C   0  0  0  0  0
    4.0512   10.9721   52.4859 C   0  0  0  0  0
    4.7325    9.8938   53.2575 C   0  0  0  0  0
    4.2468    8.3685   55.2041 C   0  0  0  0  0
    3.3943    8.0453   56.3964 C   0  0  0  0  0
    1.9740    7.6257   55.9873 C   0  0  0  0  0
    1.9266    6.4356   55.0808 C   0  0  0  0  0
    1.5174    6.5990   53.7521 C   0  0  0  0  0
    1.4318    5.4916   52.9016 C   0  0  0  0  0
    1.7472    4.2168   53.3803 C   0  0  0  0  0
    2.1460    4.0494   54.7103 C   0  0  0  0  0
    2.2324    5.1571   55.5607 C   0  0  0  0  0
    3.5560    6.7040   58.5550 C   0  0  0  0  0
    4.3168    5.7302   59.3892 C   0  0  0  0  0
    3.5129    3.5466   58.3747 C   0  0  0  0  0
    3.7587    2.3834   57.4624 C   0  0  0  0  0
    5.8651    3.0271   56.2044 C   0  0  0  0  0
    7.3169    2.8005   55.9653 C   0  0  0  0  0
    8.1488    3.8300   56.7085 C   0  0  0  0  0
    8.3110    5.0828   55.8570 C   0  0  0  0  0
    9.2132    6.0867   56.5546 C   0  0  0  0  0
   10.6527    5.5953   56.5491 C   0  0  0  0  0
   12.5271    7.3218   56.5582 C   0  0  0  0  0
   13.5706    7.7263   57.4999 C   0  0  0  0  0
   13.2532    7.2140   58.6908 C   0  0  0  0  0
   12.0026    6.4745   58.5265 C   0  0  0  0  0
   -2.3635   14.3174   43.7076 C   0  0  0  0  0
   -6.2104   17.1461   43.6778 O   0  0  0  0  0
   -5.6837   17.7459   41.0832 O   0  0  0  0  0
   -3.7626   16.4922   41.1177 O   0  0  0  0  0
   -0.9403   12.5380   50.1812 O   0  0  0  0  0
    1.8811   11.9151   50.5512 O   0  0  0  0  0
    3.6805   12.0288   53.0653 O   0  0  0  0  0
    5.2223    7.6281   54.8943 O   0  0  0  0  0
    2.4940    7.2079   59.0028 O   0  0  0  0  0
    2.3689    3.6916   58.8819 O   0  0  0  0  0
    5.2598    3.9327   55.5713 O   0  0  0  0  0
   12.5407    7.5703   55.3224 O   0  0  0  0  0
   11.4387    5.8102   59.4360 O   0  0  0  0  0
   -1.4001   13.7791   43.0970 O   0  0  0  0  0
   -2.7508   13.8535   44.9261 N   0  0  0  0  0
   -4.8751   13.9040   47.8282 N   0  0  0  0  0
   -0.5823   11.2094   48.2815 N   0  0  0  0  0
    3.8733   10.8154   51.0764 N   0  0  0  0  0
    3.9199    9.5019   54.3985 N   0  0  0  0  0
    4.0360    7.0502   57.2524 N   0  0  0  0  0
    4.5470    4.5002   58.6451 N   0  0  0  0  0
    5.1753    2.2201   57.1644 N   0  0  0  0  0
   11.5068    6.5750   57.2009 N   0  0  0  0  0
   -6.7761   12.6632   52.0059 F   0  0  0  0  0
  1  2  1  0  0  0
  2  3  1  0  0  0
  3 53  1  0  0  0
  3  4  1  0  0  0
  3  7  1  0  0  0
  4 55  1  0  0  0
  5 55  1  0  0  0
  5  6  1  0  0  0
  7  8  1  0  0  0
  9 66  1  0  0  0
 10 66  1  0  0  0
 10 11  1  0  0  0
 13 12  1  0  0  0
 13 14  1  0  0  0
 13 68  1  0  0  0
 14 15  1  0  0  0
 15 16  1  0  0  0
 16 17  1  0  0  0
 17 12  1  0  0  0
 18 19  1  0  0  0
 18 67  1  0  0  0
 20 75  1  0  0  0
 20 21  1  0  0  0
 22 21  1  0  0  0
 23  9  1  0  0  0
 23 11  1  0  0  0
 25 24  1  0  0  0
 25 57  1  0  0  0
 26 57  1  0  0  0
 26 69  1  0  0  0
 28 27  1  0  0  0
 28 70  1  0  0  0
 30 29  1  0  0  0
 30 31  1  0  0  0
 30 71  1  0  0  0
 31 32  1  0  0  0
 33 34  1  0  0  0
 35 36  1  0  0  0
 37 32  1  0  0  0
 39 38  1  0  0  0
 39 72  1  0  0  0
 41 40  1  0  0  0
 41 73  1  0  0  0
 43 42  1  0  0  0
 43 44  1  0  0  0
 44 45  1  0  0  0
 45 46  1  0  0  0
 46 47  1  0  0  0
 47 74  1  0  0  0
 48 49  1  0  0  0
 50 51  1  0  0  0
 51 74  1  0  0  0
 52  6  1  0  0  0
 66 52  1  0  0  0
 68 24  1  0  0  0
 69 27  1  0  0  0
 70 29  1  0  0  0
 71 38  1  0  0  0
 72 40  1  0  0  0
 73 42  1  0  0  0
 74 48  1  0  0  0
  4 54  2  0  0  0
  6  7  2  0  0  0
  8  9  2  0  0  0
 11 12  2  0  0  0
 17 18  2  0  0  0
 19 20  2  0  0  0
 21 16  2  0  0  0
 23 67  2  0  0  0
 24 56  2  0  0  0
 27 58  2  0  0  0
 29 59  2  0  0  0
 32 33  2  0  0  0
 34 35  2  0  0  0
 36 37  2  0  0  0
 38 60  2  0  0  0
 40 61  2  0  0  0
 42 62  2  0  0  0
 48 63  2  0  0  0
 49 50  2  0  0  0
 51 64  2  0  0  0
 52 65  2  0  0  0
M  END
> <rmsd>
0.692606866

$$$$
MolPort-042-675-397 MCULE-9412967001 PubChem-129008936


104115  0  0  0  0  0  0  0  0999 V2000
   -6.5509   14.1500   45.3487 C   0  0  0  0  0
   -6.3810   14.5829   43.9043 C   0  0  0  0  0
   -4.8939   14.8870   42.2253 C   0  0  0  0  0
   -3.2732   13.6396   41.3268 C   0  0  0  0  0
   -2.2186   12.9020   42.1488 C   0  0  0  0  0
   -0.2840   13.1351   43.4101 C   0  0  0  0  0
   -1.4366   13.1640   45.3760 C   0  0  0  0  0
   -2.7385   12.5095   45.8484 C   0  0  0  0  0
   -2.4352   11.2434   46.6766 C   0  0  0  0  0
   -1.0894   11.3650   47.4237 C   0  0  0  0  0
    0.2392   10.6187   49.0843 C   0  0  0  0  0
    1.1331    9.4886   48.5596 C   0  0  0  0  0
    2.5018    9.5217   50.4323 C   0  0  0  0  0
    3.3662    7.5784   51.1413 C   0  0  0  0  0
    3.2909    6.0954   50.7582 C   0  0  0  0  0
    4.6080    5.3774   51.1706 C   0  0  0  0  0
    4.4258    3.9075   51.5221 C   0  0  0  0  0
    4.5194    6.5524   53.1457 C   0  0  0  0  0
    4.5727    6.3616   55.4450 C   0  0  0  0  0
    3.2255    7.0582   55.6927 C   0  0  0  0  0
    2.2275    6.1266   56.3925 C   0  0  0  0  0
    2.1191    4.7769   55.6386 C   0  0  0  0  0
    4.3995    4.8249   55.4543 C   0  0  0  0  0
    6.0934    3.5216   56.0164 C   0  0  0  0  0
    5.6729    2.0502   56.0861 C   0  0  0  0  0
    6.5543    1.2107   57.0216 C   0  0  0  0  0
    7.3165    2.0340   58.0814 C   0  0  0  0  0
    6.3213    2.6997   59.0258 C   0  0  0  0  0
    8.1584    3.1581   57.4045 C   0  0  0  0  0
    9.6838    2.9801   57.4807 C   0  0  0  0  0
   10.0736    1.5323   57.1978 C   0  0  0  0  0
    9.4705    0.5274   58.2002 C   0  0  0  0  0
    9.0534   -0.6952   57.3742 C   0  0  0  0  0
    8.2333    1.1121   58.9237 C   0  0  0  0  0
    7.5256    0.0757   59.8008 C   0  0  0  0  0
    8.5113   -0.7745   60.5639 C   0  0  0  0  0
    9.8495   -0.7571   60.3818 C   0  0  0  0  0
   10.7018   -1.7230   61.1912 C   0  0  0  0  0
   10.2054   -1.8915   62.6425 C   0  0  0  0  0
   10.7090   -0.8079   63.6026 C   0  0  0  0  0
   10.3505   -1.2189   65.0102 C   0  0  0  0  0
   10.0412    0.5257   63.3148 C   0  0  0  0  0
   12.2261   -0.6831   63.5180 C   0  0  0  0  0
   12.6877   -0.4115   62.0847 C   0  0  0  0  0
   12.2495   -1.5120   61.1008 C   0  0  0  0  0
   12.7379   -1.0667   59.7096 C   0  0  0  0  0
   11.6527   -0.6782   58.6959 C   0  0  0  0  0
   10.4999    0.1212   59.3120 C   0  0  0  0  0
   11.0505    1.3788   59.9912 C   0  0  0  0  0
   12.9868   -2.7918   61.4287 C   0  0  0  0  0
    7.6211    3.7068   56.0619 C   0  0  0  0  0
    7.9571    5.1898   55.9912 C   0  0  0  0  0
    8.2701    3.0162   54.8618 C   0  0  0  0  0
    1.7322    6.4199   58.5626 C   0  0  0  0  0
    1.6206    6.9079   60.8486 C   0  0  0  0  0
    2.3379    7.6752   61.9506 C   0  0  0  0  0
    1.3412    5.4598   61.3032 C   0  0  0  0  0
    0.9618    4.5640   60.1189 C   0  0  0  0  0
    0.6270    5.3758   58.8718 C   0  0  0  0  0
    3.7161    7.7577   52.6243 C   0  0  0  0  0
    1.6294   10.5777   51.1450 C   0  0  0  0  0
    0.1944   10.5698   50.6119 C   0  0  0  0  0
   -0.4927   13.4110   46.5948 C   0  0  0  0  0
    1.0046   13.3018   46.3117 C   0  0  0  0  0
    0.6341   12.3019   42.4914 C   0  0  0  0  0
   -0.0666   11.8640   41.1996 C   0  0  0  0  0
   -1.5787   11.6934   41.4117 C   0  0  0  0  0
   -5.5612   16.1672   41.6947 C   0  0  0  0  0
   -7.0308   16.1969   42.1341 C   0  0  0  0  0
   -7.1919   15.8524   43.6210 C   0  0  0  0  0
   -5.0195   14.8056   43.6273 O   0  0  0  0  0
   -3.5391   14.8972   41.8813 O   0  0  0  0  0
   -1.2564   13.8137   42.6429 O   0  0  0  0  0
   -0.8585   12.3180   44.4100 O   0  0  0  0  0
   -3.4740   13.4324   46.6000 O   0  0  0  0  0
   -3.4869   10.9633   47.5546 O   0  0  0  0  0
   -1.0596   10.5324   48.5567 O   0  0  0  0  0
    2.4594    9.6688   49.0194 O   0  0  0  0  0
    2.1626    8.2146   50.8273 O   0  0  0  0  0
    2.1826    5.5041   51.3761 O   0  0  0  0  0
    5.3826    6.0549   52.1450 O   0  0  0  0  0
    5.2535    6.8661   54.3073 O   0  0  0  0  0
    3.4160    8.2297   56.4268 O   0  0  0  0  0
    3.2135    4.4767   54.7855 O   0  0  0  0  0
    5.5053    4.1591   54.9162 O   0  0  0  0  0
   14.3743   -2.8228   61.3848 O   0  0  0  0  0
   12.3708   -3.8485   61.7291 O   0  0  0  0  0
    2.6667    5.8492   57.6931 O   0  0  0  0  0
    2.4400    6.8930   59.6989 O   0  0  0  0  0
    1.4523    7.9539   62.9925 O   0  0  0  0  0
    0.3083    5.4361   62.2464 O   0  0  0  0  0
    2.0118    3.6839   59.8324 O   0  0  0  0  0
   -0.6105    6.0114   59.0279 O   0  0  0  0  0
    4.4315    8.9390   52.8015 O   0  0  0  0  0
    1.6410   10.3826   52.5274 O   0  0  0  0  0
   -0.4868    9.4185   51.0341 O   0  0  0  0  0
   -0.8546   12.7093   47.7730 O   0  0  0  0  0
    1.4324   14.4181   45.5945 O   0  0  0  0  0
    1.1604   11.1917   43.1564 O   0  0  0  0  0
    0.1774   12.8057   40.1967 O   0  0  0  0  0
   -2.2147   11.3933   40.2039 O   0  0  0  0  0
   -4.8830   17.2929   42.1668 O   0  0  0  0  0
   -7.6241   17.4274   41.8434 O   0  0  0  0  0
   -6.7298   16.9006   44.4201 O   0  0  0  0  0
  1  2  1  0  0  0
  2 71  1  0  0  0
  3 71  1  0  0  0
  3 72  1  0  0  0
  3 68  1  0  0  0
  4 72  1  0  0  0
  4  5  1  0  0  0
  5 73  1  0  0  0
  6 73  1  0  0  0
  6 74  1  0  0  0
  6 65  1  0  0  0
  7 74  1  0  0  0
  7  8  1  0  0  0
  8 75  1  0  0  0
  8  9  1  0  0  0
  9 76  1  0  0  0
  9 10  1  0  0  0
 10 77  1  0  0  0
 10 97  1  0  0  0
 11 77  1  0  0  0
 11 12  1  0  0  0
 12 78  1  0  0  0
 13 78  1  0  0  0
 13 79  1  0  0  0
 13 61  1  0  0  0
 14 79  1  0  0  0
 14 15  1  0  0  0
 15 80  1  0  0  0
 15 16  1  0  0  0
 16 17  1  0  0  0
 16 81  1  0  0  0
 18 81  1  0  0  0
 18 82  1  0  0  0
 18 60  1  0  0  0
 19 82  1  0  0  0
 19 20  1  0  0  0
 20 83  1  0  0  0
 20 21  1  0  0  0
 21 22  1  0  0  0
 21 88  1  0  0  0
 22 84  1  0  0  0
 23 84  1  0  0  0
 23 85  1  0  0  0
 23 19  1  0  0  0
 24 85  1  0  0  0
 24 25  1  0  0  0
 25 26  1  0  0  0
 26 27  1  0  0  0
 27 28  1  0  0  0
 27 29  1  0  0  0
 29 30  1  0  0  0
 29 51  1  0  0  0
 30 31  1  0  0  0
 31 32  1  0  0  0
 32 33  1  0  0  0
 32 34  1  0  0  0
 34 35  1  0  0  0
 34 27  1  0  0  0
 35 36  1  0  0  0
 38 37  1  0  0  0
 38 39  1  0  0  0
 39 40  1  0  0  0
 40 41  1  0  0  0
 40 42  1  0  0  0
 40 43  1  0  0  0
 43 44  1  0  0  0
 44 45  1  0  0  0
 45 46  1  0  0  0
 45 50  1  0  0  0
 45 38  1  0  0  0
 46 47  1  0  0  0
 47 48  1  0  0  0
 48 49  1  0  0  0
 48 37  1  0  0  0
 48 32  1  0  0  0
 50 86  1  0  0  0
 51 52  1  0  0  0
 51 53  1  0  0  0
 51 24  1  0  0  0
 54 88  1  0  0  0
 54 89  1  0  0  0
 55 89  1  0  0  0
 55 56  1  0  0  0
 55 57  1  0  0  0
 56 90  1  0  0  0
 57 91  1  0  0  0
 57 58  1  0  0  0
 58 92  1  0  0  0
 58 59  1  0  0  0
 59 93  1  0  0  0
 59 54  1  0  0  0
 60 94  1  0  0  0
 60 14  1  0  0  0
 61 95  1  0  0  0
 61 62  1  0  0  0
 62 96  1  0  0  0
 62 11  1  0  0  0
 63 97  1  0  0  0
 63 64  1  0  0  0
 63  7  1  0  0  0
 64 98  1  0  0  0
 65 99  1  0  0  0
 65 66  1  0  0  0
 66100  1  0  0  0
 66 67  1  0  0  0
 67101  1  0  0  0
 67  5  1  0  0  0
 68102  1  0  0  0
 68 69  1  0  0  0
 69103  1  0  0  0
 69 70  1  0  0  0
 70104  1  0  0  0
 70  2  1  0  0  0
 36 37  2  0  0  0
 50 87  2  0  0  0
M  END
> <rmsd>
0.609724879

$$$$
MolPort-042-675-397 MCULE-9412967001 PubChem-129008936


104115  0  0  0  0  0  0  0  0999 V2000
    4.5897   16.6416   40.7619 C   0  0  0  0  0
    4.0819   17.8889   41.4629 C   0  0  0  0  0
    2.6327   18.6170   43.0501 C   0  0  0  0  0
    0.3476   18.6516   42.8097 C   0  0  0  0  0
   -0.4335   17.3721   42.5185 C   0  0  0  0  0
    0.0998   15.4829   43.7711 C   0  0  0  0  0
    1.2828   14.4862   45.3827 C   0  0  0  0  0
    1.4829   13.0056   45.0162 C   0  0  0  0  0
    0.8321   12.0657   46.0357 C   0  0  0  0  0
    0.9074   12.6419   47.4623 C   0  0  0  0  0
    2.3043   11.0899   48.4297 C   0  0  0  0  0
    2.9050   11.2253   49.8326 C   0  0  0  0  0
    3.0259    9.0547   50.3387 C   0  0  0  0  0
    3.3018    7.6542   52.0446 C   0  0  0  0  0
    4.1739    8.2245   53.1707 C   0  0  0  0  0
    5.5066    7.4301   53.2651 C   0  0  0  0  0
    6.1934    7.5358   54.6177 C   0  0  0  0  0
    4.2074    5.5303   53.1055 C   0  0  0  0  0
    4.0155    3.5754   54.2916 C   0  0  0  0  0
    2.5260    3.6114   54.7352 C   0  0  0  0  0
    2.1985    4.4634   55.9763 C   0  0  0  0  0
    3.4734    4.8795   56.7324 C   0  0  0  0  0
    5.0082    4.0336   55.3852 C   0  0  0  0  0
    7.2077    4.2650   55.6103 C   0  0  0  0  0
    8.1923    4.3850   54.4412 C   0  0  0  0  0
    9.0123    3.1075   54.2688 C   0  0  0  0  0
    9.7965    2.7206   55.5401 C   0  0  0  0  0
   10.9028    3.7463   55.7867 C   0  0  0  0  0
    8.8507    2.6913   56.7839 C   0  0  0  0  0
    8.0684    1.3752   56.9608 C   0  0  0  0  0
    8.0885    0.4918   55.7193 C   0  0  0  0  0
    9.5258    0.0904   55.3423 C   0  0  0  0  0
   10.0508   -0.8328   56.4478 C   0  0  0  0  0
   10.4764    1.3361   55.3373 C   0  0  0  0  0
   11.5221    1.3555   54.2034 C   0  0  0  0  0
   11.9060   -0.0181   53.7393 C   0  0  0  0  0
   10.9775   -0.9729   53.5688 C   0  0  0  0  0
   11.4326   -2.2937   52.9779 C   0  0  0  0  0
   11.9931   -2.0885   51.5641 C   0  0  0  0  0
   12.7281   -3.3422   51.0728 C   0  0  0  0  0
   12.7890   -3.3003   49.5572 C   0  0  0  0  0
   14.1469   -3.3294   51.6098 C   0  0  0  0  0
   12.0488   -4.6448   51.5118 C   0  0  0  0  0
   10.5774   -4.4406   51.8660 C   0  0  0  0  0
   10.4092   -3.4730   53.0501 C   0  0  0  0  0
    8.9761   -2.9489   52.9754 C   0  0  0  0  0
    8.6963   -1.9624   54.0978 C   0  0  0  0  0
    9.5341   -0.6790   53.9722 C   0  0  0  0  0
    8.8980    0.1707   52.8712 C   0  0  0  0  0
   10.5930   -4.2677   54.3254 C   0  0  0  0  0
    7.9444    3.9458   56.9323 C   0  0  0  0  0
    8.7809    5.1538   57.3284 C   0  0  0  0  0
    6.9505    3.7688   58.0751 C   0  0  0  0  0
    0.8129    4.4913   57.8814 C   0  0  0  0  0
    1.1300    4.9652   60.1272 C   0  0  0  0  0
    0.0443    4.0299   60.6532 C   0  0  0  0  0
    0.6457    6.4185   59.9932 C   0  0  0  0  0
   -0.2491    6.6062   58.7663 C   0  0  0  0  0
    0.3330    5.9151   57.5246 C   0  0  0  0  0
    3.1369    6.1232   52.1756 C   0  0  0  0  0
    2.2335    8.6012   49.0969 C   0  0  0  0  0
    2.2767    9.6267   47.9521 C   0  0  0  0  0
    1.5053   14.7464   46.8868 C   0  0  0  0  0
    2.5272   15.8553   47.0491 C   0  0  0  0  0
   -0.3112   14.4828   42.6752 C   0  0  0  0  0
   -0.3921   15.1576   41.3035 C   0  0  0  0  0
    0.1591   16.5793   41.3336 C   0  0  0  0  0
    2.9275   20.0855   42.6061 C   0  0  0  0  0
    3.0621   20.1989   41.0818 C   0  0  0  0  0
    4.0389   19.1294   40.5425 C   0  0  0  0  0
    2.8213   17.6522   42.0302 O   0  0  0  0  0
    1.4019   18.4282   43.7195 O   0  0  0  0  0
   -0.7143   16.6321   43.7037 O   0  0  0  0  0
   -0.0115   14.8931   45.0356 O   0  0  0  0  0
    2.8454   12.7253   44.9235 O   0  0  0  0  0
   -0.4971   11.8416   45.6873 O   0  0  0  0  0
    1.0015   11.6225   48.4400 O   0  0  0  0  0
    3.8154   10.1886   50.0734 O   0  0  0  0  0
    3.8372    8.0126   50.7996 O   0  0  0  0  0
    3.4684    8.1503   54.3732 O   0  0  0  0  0
    5.4660    6.0853   52.8079 O   0  0  0  0  0
    4.2595    4.1287   53.0119 O   0  0  0  0  0
    1.6568    3.9013   53.6836 O   0  0  0  0  0
    4.4340    3.8669   56.6505 O   0  0  0  0  0
    6.2087    3.3237   55.3057 O   0  0  0  0  0
    9.7667   -5.3580   54.5866 O   0  0  0  0  0
   11.4983   -3.9716   55.1508 O   0  0  0  0  0
    1.3011    3.7280   56.7870 O   0  0  0  0  0
    1.7453    4.4890   58.9440 O   0  0  0  0  0
    0.5796    2.7568   60.8633 O   0  0  0  0  0
    1.7483    7.2697   59.9024 O   0  0  0  0  0
   -1.5340    6.1330   59.0384 O   0  0  0  0  0
   -0.6267    5.8656   56.5082 O   0  0  0  0  0
    3.1559    5.4980   50.9246 O   0  0  0  0  0
    0.9075    8.3645   49.4610 O   0  0  0  0  0
    3.3949    9.3796   47.1533 O   0  0  0  0  0
    1.9357   13.5997   47.5800 O   0  0  0  0  0
    2.5886   16.2515   48.3866 O   0  0  0  0  0
   -1.5543   13.9171   42.9785 O   0  0  0  0  0
    0.3152   14.3951   40.3733 O   0  0  0  0  0
   -0.1242   17.2317   40.1358 O   0  0  0  0  0
    1.9926   20.9995   43.1026 O   0  0  0  0  0
    1.8035   20.0676   40.4807 O   0  0  0  0  0
    3.7165   18.7840   39.2234 O   0  0  0  0  0
  1  2  1  0  0  0
  2 71  1  0  0  0
  3 71  1  0  0  0
  3 72  1  0  0  0
  3 68  1  0  0  0
  4 72  1  0  0  0
  4  5  1  0  0  0
  5 73  1  0  0  0
  6 73  1  0  0  0
  6 74  1  0  0  0
  6 65  1  0  0  0
  7 74  1  0  0  0
  7  8  1  0  0  0
  8 75  1  0  0  0
  8  9  1  0  0  0
  9 76  1  0  0  0
  9 10  1  0  0  0
 10 77  1  0  0  0
 10 97  1  0  0  0
 11 77  1  0  0  0
 11 12  1  0  0  0
 12 78  1  0  0  0
 13 78  1  0  0  0
 13 79  1  0  0  0
 13 61  1  0  0  0
 14 79  1  0  0  0
 14 15  1  0  0  0
 15 80  1  0  0  0
 15 16  1  0  0  0
 16 17  1  0  0  0
 16 81  1  0  0  0
 18 81  1  0  0  0
 18 82  1  0  0  0
 18 60  1  0  0  0
 19 82  1  0  0  0
 19 20  1  0  0  0
 20 83  1  0  0  0
 20 21  1  0  0  0
 21 22  1  0  0  0
 21 88  1  0  0  0
 22 84  1  0  0  0
 23 84  1  0  0  0
 23 85  1  0  0  0
 23 19  1  0  0  0
 24 85  1  0  0  0
 24 25  1  0  0  0
 25 26  1  0  0  0
 26 27  1  0  0  0
 27 28  1  0  0  0
 27 29  1  0  0  0
 29 30  1  0  0  0
 29 51  1  0  0  0
 30 31  1  0  0  0
 31 32  1  0  0  0
 32 33  1  0  0  0
 32 34  1  0  0  0
 34 35  1  0  0  0
 34 27  1  0  0  0
 35 36  1  0  0  0
 38 37  1  0  0  0
 38 39  1  0  0  0
 39 40  1  0  0  0
 40 41  1  0  0  0
 40 42  1  0  0  0
 40 43  1  0  0  0
 43 44  1  0  0  0
 44 45  1  0  0  0
 45 46  1  0  0  0
 45 50  1  0  0  0
 45 38  1  0  0  0
 46 47  1  0  0  0
 47 48  1  0  0  0
 48 49  1  0  0  0
 48 37  1  0  0  0
 48 32  1  0  0  0
 50 86  1  0  0  0
 51 52  1  0  0  0
 51 53  1  0  0  0
 51 24  1  0  0  0
 54 88  1  0  0  0
 54 89  1  0  0  0
 55 89  1  0  0  0
 55 56  1  0  0  0
 55 57  1  0  0  0
 56 90  1  0  0  0
 57 91  1  0  0  0
 57 58  1  0  0  0
 58 92  1  0  0  0
 58 59  1  0  0  0
 59 93  1  0  0  0
 59 54  1  0  0  0
 60 94  1  0  0  0
 60 14  1  0  0  0
 61 95  1  0  0  0
 61 62  1  0  0  0
 62 96  1  0  0  0
 62 11  1  0  0  0
 63 97  1  0  0  0
 63 64  1  0  0  0
 63  7  1  0  0  0
 64 98  1  0  0  0
 65 99  1  0  0  0
 65 66  1  0  0  0
 66100  1  0  0  0
 66 67  1  0  0  0
 67101  1  0  0  0
 67  5  1  0  0  0
 68102  1  0  0  0
 68 69  1  0  0  0
 69103  1  0  0  0
 69 70  1  0  0  0
 70104  1  0  0  0
 70  2  1  0  0  0
 36 37  2  0  0  0
 50 87  2  0  0  0
M  END
> <rmsd>
0.728136241

$$$$
MolPort-042-675-397 MCULE-9412967001 PubChem-129008936


104115  0  0  0  0  0  0  0  0999 V2000
    3.7961   13.1289   41.3337 C   0  0  0  0  0
    4.2788   14.4724   41.8505 C   0  0  0  0  0
    4.2052   15.8609   43.6439 C   0  0  0  0  0
    2.3486   17.0472   44.2970 C   0  0  0  0  0
    1.0428   16.3370   44.6472 C   0  0  0  0  0
    1.1787   14.4591   46.0174 C   0  0  0  0  0
    2.3770   13.0258   47.2421 C   0  0  0  0  0
    1.7043   11.6430   47.1978 C   0  0  0  0  0
    1.2448   11.1803   48.5838 C   0  0  0  0  0
    2.2068   11.6612   49.6866 C   0  0  0  0  0
    3.0303    9.6307   50.3899 C   0  0  0  0  0
    4.1901    9.4648   51.3771 C   0  0  0  0  0
    3.5439    7.5419   52.3083 C   0  0  0  0  0
    3.9049    6.2229   54.0626 C   0  0  0  0  0
    5.3427    6.2894   54.5937 C   0  0  0  0  0
    6.0592    4.9299   54.3597 C   0  0  0  0  0
    7.2493    4.6940   55.2763 C   0  0  0  0  0
    4.1364    3.9507   55.1762 C   0  0  0  0  0
    3.6533    2.3833   56.7810 C   0  0  0  0  0
    2.7212    3.1779   57.7385 C   0  0  0  0  0
    3.4114    4.0979   58.7634 C   0  0  0  0  0
    4.9235    3.8211   58.8478 C   0  0  0  0  0
    5.1194    2.2916   57.2640 C   0  0  0  0  0
    7.0218    1.3776   56.5655 C   0  0  0  0  0
    7.3051    0.9623   55.1172 C   0  0  0  0  0
    7.2893   -0.5572   54.9591 C   0  0  0  0  0
    8.2980   -1.2683   55.8854 C   0  0  0  0  0
    9.7211   -0.9427   55.4324 C   0  0  0  0  0
    8.1189   -0.7933   57.3635 C   0  0  0  0  0
    7.0080   -1.5269   58.1402 C   0  0  0  0  0
    6.0664   -2.3180   57.2403 C   0  0  0  0  0
    6.8253   -3.3996   56.4508 C   0  0  0  0  0
    7.3194   -4.4436   57.4588 C   0  0  0  0  0
    8.1126   -2.8093   55.7799 C   0  0  0  0  0
    8.4141   -3.3418   54.3638 C   0  0  0  0  0
    7.8866   -4.7273   54.1363 C   0  0  0  0  0
    6.6669   -5.0810   54.5718 C   0  0  0  0  0
    6.1606   -6.4592   54.1911 C   0  0  0  0  0
    6.0438   -6.5898   52.6665 C   0  0  0  0  0
    5.8285   -8.0508   52.2510 C   0  0  0  0  0
    5.2072   -8.0699   50.8668 C   0  0  0  0  0
    7.1723   -8.7516   52.1828 C   0  0  0  0  0
    4.9219   -8.8208   53.2186 C   0  0  0  0  0
    4.0383   -7.8921   54.0486 C   0  0  0  0  0
    4.8773   -6.9542   54.9337 C   0  0  0  0  0
    3.9716   -5.7763   55.2893 C   0  0  0  0  0
    4.7049   -4.7664   56.1575 C   0  0  0  0  0
    5.8672   -4.0884   55.4132 C   0  0  0  0  0
    5.2567   -3.0512   54.4697 C   0  0  0  0  0
    5.2424   -7.7115   56.1925 C   0  0  0  0  0
    8.0469    0.7498   57.5388 C   0  0  0  0  0
    9.4111    1.3719   57.2782 C   0  0  0  0  0
    7.7191    1.1204   58.9812 C   0  0  0  0  0
    3.2184    4.8561   60.9856 C   0  0  0  0  0
    4.6925    5.1393   62.7506 C   0  0  0  0  0
    3.6758    4.8935   63.8624 C   0  0  0  0  0
    4.9069    6.6349   62.4643 C   0  0  0  0  0
    3.7441    7.2312   61.6683 C   0  0  0  0  0
    3.3220    6.3204   60.5062 C   0  0  0  0  0
    3.1536    4.9901   54.6139 C   0  0  0  0  0
    2.1671    7.5337   51.6153 C   0  0  0  0  0
    2.1393    8.3768   50.3297 C   0  0  0  0  0
    3.3467   13.1611   48.4342 C   0  0  0  0  0
    4.7037   13.5999   47.9182 C   0  0  0  0  0
   -0.0815   13.7888   45.4408 C   0  0  0  0  0
   -0.4646   14.3890   44.0857 C   0  0  0  0  0
    0.6091   15.3342   43.5564 C   0  0  0  0  0
    4.8868   16.9690   42.7790 C   0  0  0  0  0
    4.3504   16.9738   41.3414 C   0  0  0  0  0
    4.3822   15.5480   40.7458 C   0  0  0  0  0
    3.4577   14.9178   42.8967 O   0  0  0  0  0
    3.4746   16.3340   44.7580 O   0  0  0  0  0
    1.0331   15.8612   45.9907 O   0  0  0  0  0
    1.4027   14.0279   47.3300 O   0  0  0  0  0
    2.5885   10.7083   46.6611 O   0  0  0  0  0
   -0.0386   11.6566   48.8372 O   0  0  0  0  0
    2.2675   10.7511   50.7692 O   0  0  0  0  0
    4.5389    8.1135   51.4942 O   0  0  0  0  0
    3.9135    6.2398   52.6610 O   0  0  0  0  0
    5.3103    6.6030   55.9538 O   0  0  0  0  0
    5.2202    3.7848   54.2939 O   0  0  0  0  0
    3.5084    2.7155   55.4128 O   0  0  0  0  0
    1.7033    3.8520   57.0640 O   0  0  0  0  0
    5.1755    2.4598   58.6522 O   0  0  0  0  0
    5.6927    1.0692   56.9053 O   0  0  0  0  0
    4.2366   -8.2269   57.0066 O   0  0  0  0  0
    6.4472   -7.9030   56.5094 O   0  0  0  0  0
    2.7583    3.9331   60.0083 O   0  0  0  0  0
    4.4184    4.3977   61.5758 O   0  0  0  0  0
    3.6157    3.5285   64.1532 O   0  0  0  0  0
    6.0964    6.8067   61.7543 O   0  0  0  0  0
    2.6649    7.4804   62.5180 O   0  0  0  0  0
    2.0987    6.7488   59.9801 O   0  0  0  0  0
    2.3221    4.4218   53.6434 O   0  0  0  0  0
    1.2035    8.0090   52.5054 O   0  0  0  0  0
    2.5297    7.5832   49.2492 O   0  0  0  0  0
    3.4811   11.9660   49.1652 O   0  0  0  0  0
    5.5341   13.9316   48.9906 O   0  0  0  0  0
   -1.1557   13.9376   46.3247 O   0  0  0  0  0
   -0.6808   13.3582   43.1705 O   0  0  0  0  0
    0.1387   16.0208   42.4392 O   0  0  0  0  0
    4.7986   18.2390   43.3581 O   0  0  0  0  0
    3.0483   17.4901   41.3199 O   0  0  0  0  0
    3.3813   15.3930   39.7775 O   0  0  0  0  0
  1  2  1  0  0  0
  2 71  1  0  0  0
  3 71  1  0  0  0
  3 72  1  0  0  0
  3 68  1  0  0  0
  4 72  1  0  0  0
  4  5  1  0  0  0
  5 73  1  0  0  0
  6 73  1  0  0  0
  6 74  1  0  0  0
  6 65  1  0  0  0
  7 74  1  0  0  0
  7  8  1  0  0  0
  8 75  1  0  0  0
  8  9  1  0  0  0
  9 76  1  0  0  0
  9 10  1  0  0  0
 10 77  1  0  0  0
 10 97  1  0  0  0
 11 77  1  0  0  0
 11 12  1  0  0  0
 12 78  1  0  0  0
 13 78  1  0  0  0
 13 79  1  0  0  0
 13 61  1  0  0  0
 14 79  1  0  0  0
 14 15  1  0  0  0
 15 80  1  0  0  0
 15 16  1  0  0  0
 16 17  1  0  0  0
 16 81  1  0  0  0
 18 81  1  0  0  0
 18 82  1  0  0  0
 18 60  1  0  0  0
 19 82  1  0  0  0
 19 20  1  0  0  0
 20 83  1  0  0  0
 20 21  1  0  0  0
 21 22  1  0  0  0
 21 88  1  0  0  0
 22 84  1  0  0  0
 23 84  1  0  0  0
 23 85  1  0  0  0
 23 19  1  0  0  0
 24 85  1  0  0  0
 24 25  1  0  0  0
 25 26  1  0  0  0
 26 27  1  0  0  0
 27 28  1  0  0  0
 27 29  1  0  0  0
 29 30  1  0  0  0
 29 51  1  0  0  0
 30 31  1  0  0  0
 31 32  1  0  0  0
 32 33  1  0  0  0
 32 34  1  0  0  0
 34 35  1  0  0  0
 34 27  1  0  0  0
 35 36  1  0  0  0
 38 37  1  0  0  0
 38 39  1  0  0  0
 39 40  1  0  0  0
 40 41  1  0  0  0
 40 42  1  0  0  0
 40 43  1  0  0  0
 43 44  1  0  0  0
 44 45  1  0  0  0
 45 46  1  0  0  0
 45 50  1  0  0  0
 45 38  1  0  0  0
 46 47  1  0  0  0
 47 48  1  0  0  0
 48 49  1  0  0  0
 48 37  1  0  0  0
 48 32  1  0  0  0
 50 86  1  0  0  0
 51 52  1  0  0  0
 51 53  1  0  0  0
 51 24  1  0  0  0
 54 88  1  0  0  0
 54 89  1  0  0  0
 55 89  1  0  0  0
 55 56  1  0  0  0
 55 57  1  0  0  0
 56 90  1  0  0  0
 57 91  1  0  0  0
 57 58  1  0  0  0
 58 92  1  0  0  0
 58 59  1  0  0  0
 59 93  1  0  0  0
 59 54  1  0  0  0
 60 94  1  0  0  0
 60 14  1  0  0  0
 61 95  1  0  0  0
 61 62  1  0  0  0
 62 96  1  0  0  0
 62 11  1  0  0  0
 63 97  1  0  0  0
 63 64  1  0  0  0
 63  7  1  0  0  0
 64 98  1  0  0  0
 65 99  1  0  0  0
 65 66  1  0  0  0
 66100  1  0  0  0
 66 67  1  0  0  0
 67101  1  0  0  0
 67  5  1  0  0  0
 68102  1  0  0  0
 68 69  1  0  0  0
 69103  1  0  0  0
 69 70  1  0  0  0
 70104  1  0  0  0
 70  2  1  0  0  0
 36 37  2  0  0  0
 50 87  2  0  0  0
M  END
> <rmsd>
0.792470694

$$$$
MolPort-005-945-611 PubChem-45360145


 92102  0  0  0  0  0  0  0  0999 V2000
    7.6081    4.8218   55.5921 C   0  0  0  0  0
    6.3979    5.0835   56.4759 C   0  0  0  0  0
    5.5589    3.8049   56.7334 C   0  0  0  0  0
    4.5881    3.4904   55.5956 C   0  0  0  0  0
    3.8832    4.7378   55.0931 C   0  0  0  0  0
    4.8538    5.9140   54.9015 C   0  0  0  0  0
    4.9393    6.2686   52.6599 C   0  0  0  0  0
    4.8643    7.8041   52.6896 C   0  0  0  0  0
    4.0380    8.3216   51.5169 C   0  0  0  0  0
    4.6587    7.9235   50.1734 C   0  0  0  0  0
    4.8222    6.3658   50.1120 C   0  0  0  0  0
    5.5664    5.7580   51.3441 C   0  0  0  0  0
    7.0458    6.1128   51.2820 C   0  0  0  0  0
    5.5020    4.2335   51.3191 C   0  0  0  0  0
    3.5119    5.6038   49.8054 C   0  0  0  0  0
    2.2921    6.4868   49.5439 C   0  0  0  0  0
    2.5825    7.6018   48.5303 C   0  0  0  0  0
    3.7892    8.4658   49.0089 C   0  0  0  0  0
    3.5313    9.9884   49.0668 C   0  0  0  0  0
    2.7345   10.4219   47.8757 C   0  0  0  0  0
    1.6393    9.7303   47.5128 C   0  0  0  0  0
    1.2824    8.4607   48.2854 C   0  0  0  0  0
    0.1876    7.6501   47.5737 C   0  0  0  0  0
    0.3342    7.6810   46.0550 C   0  0  0  0  0
    0.0878    9.0891   45.5008 C   0  0  0  0  0
    0.9158   10.1660   46.2555 C   0  0  0  0  0
    0.1888   11.5087   46.4245 C   0  0  0  0  0
   -1.2038   11.3833   47.0663 C   0  0  0  0  0
   -1.8414   10.0005   46.8808 C   0  0  0  0  0
   -1.4269    9.3673   45.5523 C   0  0  0  0  0
   -1.1002   11.6704   48.5499 C   0  0  0  0  0
   -2.1038   12.4239   46.4430 C   0  0  0  0  0
    0.5193    9.1507   44.0595 C   0  0  0  0  0
    0.4326   10.3232   41.8846 C   0  0  0  0  0
   -0.1608    9.2310   40.9891 C   0  0  0  0  0
   -1.6671    9.4598   40.7963 C   0  0  0  0  0
   -1.9750   10.9145   40.4246 C   0  0  0  0  0
   -1.2665   11.8159   41.4399 C   0  0  0  0  0
   -1.5936   13.2767   41.2117 C   0  0  0  0  0
   -2.6736   11.6147   38.4280 C   0  0  0  0  0
   -2.5397   13.0605   37.9068 C   0  0  0  0  0
   -3.3178   13.2191   36.6079 C   0  0  0  0  0
   -2.8154   12.2161   35.5727 C   0  0  0  0  0
   -2.4801   10.8571   36.1996 C   0  0  0  0  0
   -0.9777   10.5847   36.2053 C   0  0  0  0  0
   -0.2262    8.5867   36.8149 C   0  0  0  0  0
    1.2599    8.1747   36.6331 C   0  0  0  0  0
    1.5042    6.7260   37.0763 C   0  0  0  0  0
    0.4527    5.7600   36.5218 C   0  0  0  0  0
   -0.8674    6.4744   36.2144 C   0  0  0  0  0
    0.6688    8.8980   49.6173 C   0  0  0  0  0
    3.0307    6.9590   47.2151 C   0  0  0  0  0
    6.0259    8.5909   50.0339 C   0  0  0  0  0
    4.7830    4.9021   58.6492 C   0  0  0  0  0
    3.3271    5.1351   59.0859 C   0  0  0  0  0
    3.2339    6.5040   59.7775 C   0  0  0  0  0
    4.3488    6.6765   60.8189 C   0  0  0  0  0
    5.6870    6.2760   60.1901 C   0  0  0  0  0
    4.2351    8.0728   62.6425 C   0  0  0  0  0
    5.3983    7.4367   63.4252 C   0  0  0  0  0
    4.9167    6.7761   64.7299 C   0  0  0  0  0
    3.7368    7.5290   65.3693 C   0  0  0  0  0
    2.7472    8.0760   64.3288 C   0  0  0  0  0
    5.6304    6.2000   56.0536 O   0  0  0  0  0
    5.6654    5.7790   53.7633 O   0  0  0  0  0
    1.3641    8.3311   43.6051 O   0  0  0  0  0
    0.0172   10.1654   43.2404 O   0  0  0  0  0
    0.1343   11.6216   41.3963 O   0  0  0  0  0
   -1.1102   14.0396   42.2753 O   0  0  0  0  0
   -1.5341   11.1947   39.1235 O   0  0  0  0  0
   -3.0821   10.6475   37.4681 O   0  0  0  0  0
   -0.7269    9.3009   35.7200 O   0  0  0  0  0
   -1.0857    7.5107   37.1404 O   0  0  0  0  0
    0.9324    5.1500   35.3657 O   0  0  0  0  0
    1.5049    6.6520   38.4706 O   0  0  0  0  0
    1.6797    8.3405   35.3106 O   0  0  0  0  0
   -3.7763   12.0534   34.5719 O   0  0  0  0  0
   -3.1953   14.5200   36.1115 O   0  0  0  0  0
   -1.1993   13.4029   37.7098 O   0  0  0  0  0
   -2.1982    8.5741   39.8568 O   0  0  0  0  0
    0.4999    9.2439   39.7601 O   0  0  0  0  0
    2.8579    5.0916   55.9675 O   0  0  0  0  0
    5.2545    2.8593   54.5407 O   0  0  0  0  0
    4.9260    3.6664   58.0004 O   0  0  0  0  0
    5.6329    4.9384   59.7684 O   0  0  0  0  0
    4.4086    8.0190   61.2382 O   0  0  0  0  0
    2.9845    7.5513   63.0457 O   0  0  0  0  0
    4.2064    8.5813   66.1572 O   0  0  0  0  0
    4.5277    5.4627   64.4725 O   0  0  0  0  0
    6.3580    8.4063   63.7107 O   0  0  0  0  0
    1.9823    6.6821   60.3713 O   0  0  0  0  0
    2.9141    4.1168   59.9507 O   0  0  0  0  0
  2  1  1  0  0  0
  2  3  1  0  0  0
  2 64  1  0  0  0
  3  4  1  0  0  0
  3 84  1  0  0  0
  4  5  1  0  0  0
  4 83  1  0  0  0
  5  6  1  0  0  0
  5 82  1  0  0  0
  6 64  1  0  0  0
  6 65  1  0  0  0
  7 65  1  0  0  0
  7  8  1  0  0  0
  8  9  1  0  0  0
  9 10  1  0  0  0
 10 11  1  0  0  0
 10 53  1  0  0  0
 11 12  1  0  0  0
 11 15  1  0  0  0
 12 13  1  0  0  0
 12 14  1  0  0  0
 12  7  1  0  0  0
 15 16  1  0  0  0
 16 17  1  0  0  0
 17 18  1  0  0  0
 17 52  1  0  0  0
 18 19  1  0  0  0
 18 10  1  0  0  0
 19 20  1  0  0  0
 22 21  1  0  0  0
 22 23  1  0  0  0
 22 51  1  0  0  0
 22 17  1  0  0  0
 23 24  1  0  0  0
 24 25  1  0  0  0
 25 26  1  0  0  0
 25 33  1  0  0  0
 26 27  1  0  0  0
 26 21  1  0  0  0
 27 28  1  0  0  0
 28 29  1  0  0  0
 28 31  1  0  0  0
 28 32  1  0  0  0
 29 30  1  0  0  0
 30 25  1  0  0  0
 33 67  1  0  0  0
 34 67  1  0  0  0
 34 35  1  0  0  0
 34 68  1  0  0  0
 35 36  1  0  0  0
 35 81  1  0  0  0
 36 37  1  0  0  0
 36 80  1  0  0  0
 37 38  1  0  0  0
 37 70  1  0  0  0
 38 68  1  0  0  0
 38 39  1  0  0  0
 39 69  1  0  0  0
 40 70  1  0  0  0
 40 41  1  0  0  0
 40 71  1  0  0  0
 41 42  1  0  0  0
 41 79  1  0  0  0
 42 43  1  0  0  0
 42 78  1  0  0  0
 43 44  1  0  0  0
 43 77  1  0  0  0
 44 71  1  0  0  0
 44 45  1  0  0  0
 45 72  1  0  0  0
 46 72  1  0  0  0
 46 47  1  0  0  0
 46 73  1  0  0  0
 47 48  1  0  0  0
 47 76  1  0  0  0
 48 49  1  0  0  0
 48 75  1  0  0  0
 49 50  1  0  0  0
 49 74  1  0  0  0
 50 73  1  0  0  0
 54 84  1  0  0  0
 54 55  1  0  0  0
 54 85  1  0  0  0
 55 56  1  0  0  0
 55 92  1  0  0  0
 56 57  1  0  0  0
 56 91  1  0  0  0
 57 58  1  0  0  0
 57 86  1  0  0  0
 58 85  1  0  0  0
 59 86  1  0  0  0
 59 60  1  0  0  0
 59 87  1  0  0  0
 60 61  1  0  0  0
 60 90  1  0  0  0
 61 62  1  0  0  0
 61 89  1  0  0  0
 62 63  1  0  0  0
 62 88  1  0  0  0
 63 87  1  0  0  0
 20 21  2  0  0  0
 33 66  2  0  0  0
M  END
> <rmsd>
0.708835661

$$$$
MolPort-016-927-849 ChemDiv-V005-0588 MCULE-4155337836 PubChem-42676199 ZINC000101152476


 41 45  0  0  0  0  0  0  0  0999 V2000
    8.3529    4.4763   56.2358 C   0  0  0  0  0
    8.1848    5.4568   55.0914 C   0  0  0  0  0
    6.7390    5.9215   55.0031 C   0  0  0  0  0
    6.0659    4.4128   53.1189 C   0  0  0  0  0
    4.8714    4.7544   52.2952 C   0  0  0  0  0
    3.4615    6.6349   51.2725 C   0  0  0  0  0
    3.3176    8.0178   51.1299 C   0  0  0  0  0
    2.2474    8.5469   50.4037 C   0  0  0  0  0
    1.3004    7.6998   49.8049 C   0  0  0  0  0
    1.4509    6.3108   49.9491 C   0  0  0  0  0
    2.5209    5.7833   50.6761 C   0  0  0  0  0
   -0.7834    7.3480   48.4274 C   0  0  0  0  0
   -1.8912    8.1342   47.7291 C   0  0  0  0  0
   -0.2860   10.0812   47.4999 C   0  0  0  0  0
    0.0261    9.6966   48.9455 C   0  0  0  0  0
   -1.6139    9.2587   45.5117 C   0  0  0  0  0
   -1.4797   10.5065   44.7240 C   0  0  0  0  0
   -1.4328   10.4443   43.3233 C   0  0  0  0  0
   -1.3332   11.6126   42.5627 C   0  0  0  0  0
   -1.2868   12.8611   43.1895 C   0  0  0  0  0
   -1.1300   15.3184   42.9553 C   0  0  0  0  0
   -1.3468   12.9304   44.5898 C   0  0  0  0  0
   -1.4463   11.7615   45.3489 C   0  0  0  0  0
    4.9423    4.1760   55.3559 C   0  0  0  0  0
    4.3247    4.8338   56.5306 C   0  0  0  0  0
    3.7122    4.0448   57.5288 C   0  0  0  0  0
    3.1196    4.6972   58.6063 C   0  0  0  0  0
    3.1103    6.0493   58.7131 C   0  0  0  0  0
    2.0321    5.2174   60.5391 C   0  0  0  0  0
    3.6898    6.8703   57.7509 C   0  0  0  0  0
    4.2987    6.2458   56.6480 C   0  0  0  0  0
    5.8767    4.8578   54.4962 N   0  0  0  0  0
    4.5730    6.1303   52.0248 N   0  0  0  0  0
    0.1993    8.2446   49.0518 N   0  0  0  0  0
   -1.3065    9.2014   46.9168 N   0  0  0  0  0
    4.1359    3.8280   51.8626 O   0  0  0  0  0
   -2.0203    8.2152   44.9295 O   0  0  0  0  0
   -1.1843   14.0107   42.4016 O   0  0  0  0  0
    4.6305    2.9811   55.0962 O   0  0  0  0  0
    2.4593    6.4148   59.8743 O   0  0  0  0  0
    2.4740    4.1453   59.6943 O   0  0  0  0  0
  1  2  1  0  0  0
  2  3  1  0  0  0
  3 32  1  0  0  0
  4 32  1  0  0  0
  4  5  1  0  0  0
  5 33  1  0  0  0
  7  8  1  0  0  0
  9 10  1  0  0  0
  9 34  1  0  0  0
 11  6  1  0  0  0
 12 34  1  0  0  0
 12 13  1  0  0  0
 13 35  1  0  0  0
 14 35  1  0  0  0
 14 15  1  0  0  0
 15 34  1  0  0  0
 16 17  1  0  0  0
 18 19  1  0  0  0
 20 38  1  0  0  0
 20 22  1  0  0  0
 21 38  1  0  0  0
 23 17  1  0  0  0
 24 25  1  0  0  0
 26 27  1  0  0  0
 27 41  1  0  0  0
 28 40  1  0  0  0
 28 30  1  0  0  0
 29 40  1  0  0  0
 29 41  1  0  0  0
 31 25  1  0  0  0
 32 24  1  0  0  0
 33  6  1  0  0  0
 35 16  1  0  0  0
  5 36  2  0  0  0
  6  7  2  0  0  0
  8  9  2  0  0  0
 10 11  2  0  0  0
 16 37  2  0  0  0
 17 18  2  0  0  0
 19 20  2  0  0  0
 22 23  2  0  0  0
 24 39  2  0  0  0
 25 26  2  0  0  0
 27 28  2  0  0  0
 30 31  2  0  0  0
M  END
> <rmsd>
0.746760547

$$$$
MolPort-035-783-496 CHEMBL1200626 CHEMBL1201283 LN02127196 PubChem-131715194 PubChem-133065454 PubChem-49800003 PubChem-49800004


 85 86  0  0  0  0  0  0  0  0999 V2000
    6.7017   -2.5032   58.7472 C   0  0  0  0  0
    5.5620   -1.6737   58.1818 C   0  0  0  0  0
    4.8157   -0.9551   59.3024 C   0  0  0  0  0
    3.9189   -1.9386   60.0390 C   0  0  0  0  0
    3.9575    0.1631   58.7258 C   0  0  0  0  0
    4.8089    1.3535   58.3034 C   0  0  0  0  0
    5.3088    2.1302   59.5182 C   0  0  0  0  0
    4.1790    2.8601   60.2342 C   0  0  0  0  0
    3.7024    4.0132   59.4222 C   0  0  0  0  0
    4.1704    6.2250   58.3096 C   0  0  0  0  0
    4.2183    7.5389   59.0878 C   0  0  0  0  0
    3.1491    7.5838   60.1721 C   0  0  0  0  0
    5.0455    6.2496   57.0899 C   0  0  0  0  0
    5.8667    5.0761   55.0168 C   0  0  0  0  0
    5.0562    5.1448   53.7544 C   0  0  0  0  0
    5.6410    7.5921   53.3909 C   0  0  0  0  0
    7.1743    7.5337   53.4290 C   0  0  0  0  0
    7.8080    7.2427   52.0740 C   0  0  0  0  0
    5.1385    8.7144   52.5463 C   0  0  0  0  0
    3.9669   10.9360   52.3751 C   0  0  0  0  0
    2.8064   11.6337   53.0717 C   0  0  0  0  0
    1.5211   10.8336   52.9070 C   0  0  0  0  0
    0.0854   11.0681   50.8265 C   0  0  0  0  0
   -0.1010   10.8473   49.3473 C   0  0  0  0  0
    0.9596    9.9890   48.6376 C   0  0  0  0  0
    2.3528   10.6052   48.6591 C   0  0  0  0  0
    0.4020   13.2828   48.6729 C   0  0  0  0  0
    0.0206   14.4654   47.8495 C   0  0  0  0  0
   -1.4569   14.7840   48.0082 C   0  0  0  0  0
   -1.7656   16.1636   47.4620 C   0  0  0  0  0
    1.5331   14.7539   45.8538 C   0  0  0  0  0
    1.7645   14.6581   44.3656 C   0  0  0  0  0
    0.6418   13.9439   43.6330 C   0  0  0  0  0
   -0.5371   14.8796   43.4411 C   0  0  0  0  0
    4.2854   14.6610   44.1834 C   0  0  0  0  0
    5.5601   13.9320   43.9190 C   0  0  0  0  0
    5.7420   13.7300   42.4238 C   0  0  0  0  0
    7.1929   13.4191   42.0895 C   0  0  0  0  0
    7.4521   11.9301   42.2024 C   0  0  0  0  0
    7.4792   13.8695   40.6764 C   0  0  0  0  0
    5.4617   12.4923   46.0263 C   0  0  0  0  0
    6.3117   11.4985   46.7733 C   0  0  0  0  0
    7.5932   11.0196   46.0711 C   0  0  0  0  0
    8.6385   12.0542   45.7496 C   0  0  0  0  0
    8.4789   13.4162   46.0443 C   0  0  0  0  0
    9.4750   14.3380   45.7068 C   0  0  0  0  0
   10.6372   13.9029   45.0648 C   0  0  0  0  0
   10.8033   12.5488   44.7628 C   0  0  0  0  0
    9.8078   11.6284   45.1063 C   0  0  0  0  0
    6.5379   13.0676   48.8325 C   0  0  0  0  0
    6.4165   13.1369   50.3297 C   0  0  0  0  0
    6.1787   14.5559   50.8363 C   0  0  0  0  0
    7.4811   15.3417   50.8920 C   0  0  0  0  0
    5.0786   11.8909   52.0939 C   0  0  0  0  0
    6.7740    3.8482   55.0542 C   0  0  0  0  0
    7.8491    4.0265   56.1102 C   0  0  0  0  0
    2.5322    3.9982   58.9575 O   0  0  0  0  0
    5.8187    7.2212   56.8612 O   0  0  0  0  0
    4.3560    4.1608   53.3961 O   0  0  0  0  0
    5.3132    8.6907   51.2951 O   0  0  0  0  0
   -0.8150   11.6663   51.4737 O   0  0  0  0  0
    0.9946    8.7060   49.1885 O   0  0  0  0  0
    1.4270   13.3474   49.4007 O   0  0  0  0  0
    2.3937   15.3245   46.5801 O   0  0  0  0  0
    4.3347   15.8757   44.5221 O   0  0  0  0  0
    4.5361   13.1022   46.6267 O   0  0  0  0  0
    6.6507   14.1203   48.1476 O   0  0  0  0  0
    5.7996   12.3344   53.0293 O   0  0  0  0  0
    6.0435    2.6903   55.3369 O   0  0  0  0  0
    4.5679    5.1200   59.1716 N   0  0  0  0  0
    1.8295    7.6220   59.5682 N   0  0  0  0  0
    5.0091    5.1414   56.1906 N   0  0  0  0  0
    5.0448    6.3273   52.9568 N   0  0  0  0  0
    7.8826    5.8044   51.8521 N   0  0  0  0  0
    4.4395    9.8016   53.1581 N   0  0  0  0  0
    1.2581   10.5990   51.4935 N   0  0  0  0  0
   -0.3885   12.0863   48.6219 N   0  0  0  0  0
   -3.2001   16.3960   47.5181 N   0  0  0  0  0
    0.3420   14.2250   46.4484 N   0  0  0  0  0
   -1.6073   14.1792   42.7547 N   0  0  0  0  0
    3.0261   13.9890   44.0794 N   0  0  0  0  0
    5.6245   12.6475   44.6147 N   0  0  0  0  0
    6.5116   11.7825   48.1961 N   0  0  0  0  0
    8.2950   14.8713   51.9983 N   0  0  0  0  0
    5.3121   12.2866   50.7436 N   0  0  0  0  0
  1  2  1  0  0  0
  3  2  1  0  0  0
  3  4  1  0  0  0
  3  5  1  0  0  0
  5  6  1  0  0  0
  6  7  1  0  0  0
  7  8  1  0  0  0
  8  9  1  0  0  0
  9 70  1  0  0  0
 10 70  1  0  0  0
 10 11  1  0  0  0
 10 13  1  0  0  0
 11 12  1  0  0  0
 12 71  1  0  0  0
 13 72  1  0  0  0
 14 72  1  0  0  0
 14 15  1  0  0  0
 14 55  1  0  0  0
 15 73  1  0  0  0
 16 73  1  0  0  0
 16 17  1  0  0  0
 16 19  1  0  0  0
 17 18  1  0  0  0
 18 74  1  0  0  0
 19 75  1  0  0  0
 20 75  1  0  0  0
 20 21  1  0  0  0
 20 54  1  0  0  0
 21 22  1  0  0  0
 22 76  1  0  0  0
 24 23  1  0  0  0
 24 25  1  0  0  0
 24 77  1  0  0  0
 25 26  1  0  0  0
 25 62  1  0  0  0
 28 27  1  0  0  0
 28 29  1  0  0  0
 28 79  1  0  0  0
 29 30  1  0  0  0
 30 78  1  0  0  0
 32 31  1  0  0  0
 32 33  1  0  0  0
 32 81  1  0  0  0
 33 34  1  0  0  0
 34 80  1  0  0  0
 36 35  1  0  0  0
 36 37  1  0  0  0
 36 82  1  0  0  0
 37 38  1  0  0  0
 38 39  1  0  0  0
 38 40  1  0  0  0
 42 41  1  0  0  0
 42 43  1  0  0  0
 42 83  1  0  0  0
 43 44  1  0  0  0
 45 46  1  0  0  0
 47 48  1  0  0  0
 49 44  1  0  0  0
 51 50  1  0  0  0
 51 52  1  0  0  0
 51 85  1  0  0  0
 52 53  1  0  0  0
 53 84  1  0  0  0
 55 56  1  0  0  0
 55 69  1  0  0  0
 76 23  1  0  0  0
 77 27  1  0  0  0
 79 31  1  0  0  0
 81 35  1  0  0  0
 82 41  1  0  0  0
 83 50  1  0  0  0
 85 54  1  0  0  0
  9 57  2  0  0  0
 13 58  2  0  0  0
 15 59  2  0  0  0
 19 60  2  0  0  0
 23 61  2  0  0  0
 27 63  2  0  0  0
 31 64  2  0  0  0
 35 65  2  0  0  0
 41 66  2  0  0  0
 44 45  2  0  0  0
 46 47  2  0  0  0
 48 49  2  0  0  0
 50 67  2  0  0  0
 54 68  2  0  0  0
M  END
> <rmsd>
0.5743559

$$$$
MolPort-035-783-496 CHEMBL1200626 CHEMBL1201283 LN02127196 PubChem-131715194 PubChem-133065454 PubChem-49800003 PubChem-49800004


 85 86  0  0  0  0  0  0  0  0999 V2000
    8.2210   -1.5360   58.8303 C   0  0  0  0  0
    6.8378   -1.0323   58.4564 C   0  0  0  0  0
    6.2024   -0.2919   59.6300 C   0  0  0  0  0
    5.7104   -1.2914   60.6657 C   0  0  0  0  0
    5.0234    0.5416   59.1455 C   0  0  0  0  0
    5.4924    1.7842   58.3997 C   0  0  0  0  0
    6.0534    2.8251   59.3642 C   0  0  0  0  0
    4.9659    3.4409   60.2362 C   0  0  0  0  0
    4.0951    4.3403   59.4309 C   0  0  0  0  0
    3.8356    6.3914   57.9905 C   0  0  0  0  0
    3.7593    7.7998   58.5778 C   0  0  0  0  0
    2.9532    7.8218   59.8703 C   0  0  0  0  0
    4.4134    6.3793   56.6048 C   0  0  0  0  0
    5.0214    5.0578   54.5474 C   0  0  0  0  0
    3.9721    4.7718   53.5117 C   0  0  0  0  0
    3.9283    7.1936   52.7394 C   0  0  0  0  0
    5.4122    7.4248   52.4225 C   0  0  0  0  0
    5.7996    7.0404   50.9997 C   0  0  0  0  0
    3.0325    8.0532   51.9123 C   0  0  0  0  0
    1.4007    9.9643   51.7649 C   0  0  0  0  0
    0.2868   10.5400   52.6290 C   0  0  0  0  0
   -0.8017    9.5014   52.8651 C   0  0  0  0  0
   -2.6525    9.1292   51.1679 C   0  0  0  0  0
   -3.0885    8.6423   49.8098 C   0  0  0  0  0
   -2.0382    7.8903   48.9752 C   0  0  0  0  0
   -0.8366    8.7474   48.5968 C   0  0  0  0  0
   -3.2721   10.9874   48.7581 C   0  0  0  0  0
   -4.0609   11.9311   47.9160 C   0  0  0  0  0
   -5.5069   11.9941   48.3796 C   0  0  0  0  0
   -6.2114   13.1870   47.7651 C   0  0  0  0  0
   -3.0919   12.1668   45.6010 C   0  0  0  0  0
   -3.1580   11.8762   44.1216 C   0  0  0  0  0
   -4.2272   10.8592   43.7614 C   0  0  0  0  0
   -5.5935   11.5189   43.7449 C   0  0  0  0  0
   -0.7902   12.3129   43.3526 C   0  0  0  0  0
    0.5286   11.7976   42.8824 C   0  0  0  0  0
    0.4367   11.3939   41.4202 C   0  0  0  0  0
    1.8194   11.3052   40.7925 C   0  0  0  0  0
    2.4106    9.9272   41.0133 C   0  0  0  0  0
    1.7036   11.5665   39.3092 C   0  0  0  0  0
    1.1802   10.7236   45.1061 C   0  0  0  0  0
    2.3597   10.0367   45.7424 C   0  0  0  0  0
    3.5408    9.6945   44.8191 C   0  0  0  0  0
    4.2494   10.8379   44.1430 C   0  0  0  0  0
    3.8647   12.1768   44.3068 C   0  0  0  0  0
    4.5472   13.1992   43.6400 C   0  0  0  0  0
    5.6175   12.8873   42.7976 C   0  0  0  0  0
    6.0051   11.5561   42.6243 C   0  0  0  0  0
    5.3241   10.5361   43.2966 C   0  0  0  0  0
    2.6635   11.9321   47.4943 C   0  0  0  0  0
    2.8421   12.2185   48.9596 C   0  0  0  0  0
    2.4144   13.6325   49.3398 C   0  0  0  0  0
    3.4998   14.6427   48.9961 C   0  0  0  0  0
    2.1980   11.0492   51.1213 C   0  0  0  0  0
    6.1594    4.0400   54.5126 C   0  0  0  0  0
    7.3654    4.5808   55.2581 C   0  0  0  0  0
    2.8853    4.0357   59.2593 O   0  0  0  0  0
    4.8950    7.4265   56.0896 O   0  0  0  0  0
    3.4416    3.6311   53.4448 O   0  0  0  0  0
    2.9458    7.8604   50.6666 O   0  0  0  0  0
   -3.5068    9.6483   51.9347 O   0  0  0  0  0
   -1.6147    6.7416   49.6474 O   0  0  0  0  0
   -2.1573   11.3558   49.2120 O   0  0  0  0  0
   -2.2432   12.9954   46.0333 O   0  0  0  0  0
   -0.9348   13.5544   43.5269 O   0  0  0  0  0
    0.2896   11.2418   45.8324 O   0  0  0  0  0
    2.4030   12.8630   46.6847 O   0  0  0  0  0
    2.9840   11.7626   51.8029 O   0  0  0  0  0
    5.7699    2.8285   55.0915 O   0  0  0  0  0
    4.6310    5.5321   58.8571 N   0  0  0  0  0
    1.5608    7.5189   59.5934 N   0  0  0  0  0
    4.4314    5.1529   55.8741 N   0  0  0  0  0
    3.5419    5.7875   52.6075 N   0  0  0  0  0
    6.1346    5.6237   50.9349 N   0  0  0  0  0
    2.2578    9.0775   52.5410 N   0  0  0  0  0
   -1.2943    8.9975   51.5902 N   0  0  0  0  0
   -3.7796    9.6738   49.0336 N   0  0  0  0  0
   -7.6189   13.1578   48.1295 N   0  0  0  0  0
   -3.9920   11.5310   46.5162 N   0  0  0  0  0
   -6.6060   10.5324   43.4154 N   0  0  0  0  0
   -1.8690   11.4132   43.6264 N   0  0  0  0  0
    1.0104   10.6762   43.6876 N   0  0  0  0  0
    2.7835   10.5784   47.0354 N   0  0  0  0  0
    4.6065   14.5147   49.9269 N   0  0  0  0  0
    2.0566   11.2579   49.7174 N   0  0  0  0  0
  1  2  1  0  0  0
  3  2  1  0  0  0
  3  4  1  0  0  0
  3  5  1  0  0  0
  5  6  1  0  0  0
  6  7  1  0  0  0
  7  8  1  0  0  0
  8  9  1  0  0  0
  9 70  1  0  0  0
 10 70  1  0  0  0
 10 11  1  0  0  0
 10 13  1  0  0  0
 11 12  1  0  0  0
 12 71  1  0  0  0
 13 72  1  0  0  0
 14 72  1  0  0  0
 14 15  1  0  0  0
 14 55  1  0  0  0
 15 73  1  0  0  0
 16 73  1  0  0  0
 16 17  1  0  0  0
 16 19  1  0  0  0
 17 18  1  0  0  0
 18 74  1  0  0  0
 19 75  1  0  0  0
 20 75  1  0  0  0
 20 21  1  0  0  0
 20 54  1  0  0  0
 21 22  1  0  0  0
 22 76  1  0  0  0
 24 23  1  0  0  0
 24 25  1  0  0  0
 24 77  1  0  0  0
 25 26  1  0  0  0
 25 62  1  0  0  0
 28 27  1  0  0  0
 28 29  1  0  0  0
 28 79  1  0  0  0
 29 30  1  0  0  0
 30 78  1  0  0  0
 32 31  1  0  0  0
 32 33  1  0  0  0
 32 81  1  0  0  0
 33 34  1  0  0  0
 34 80  1  0  0  0
 36 35  1  0  0  0
 36 37  1  0  0  0
 36 82  1  0  0  0
 37 38  1  0  0  0
 38 39  1  0  0  0
 38 40  1  0  0  0
 42 41  1  0  0  0
 42 43  1  0  0  0
 42 83  1  0  0  0
 43 44  1  0  0  0
 45 46  1  0  0  0
 47 48  1  0  0  0
 49 44  1  0  0  0
 51 50  1  0  0  0
 51 52  1  0  0  0
 51 85  1  0  0  0
 52 53  1  0  0  0
 53 84  1  0  0  0
 55 56  1  0  0  0
 55 69  1  0  0  0
 76 23  1  0  0  0
 77 27  1  0  0  0
 79 31  1  0  0  0
 81 35  1  0  0  0
 82 41  1  0  0  0
 83 50  1  0  0  0
 85 54  1  0  0  0
  9 57  2  0  0  0
 13 58  2  0  0  0
 15 59  2  0  0  0
 19 60  2  0  0  0
 23 61  2  0  0  0
 27 63  2  0  0  0
 31 64  2  0  0  0
 35 65  2  0  0  0
 41 66  2  0  0  0
 44 45  2  0  0  0
 46 47  2  0  0  0
 48 49  2  0  0  0
 50 67  2  0  0  0
 54 68  2  0  0  0
M  END
> <rmsd>
0.646756828

$$$$
MolPort-007-980-781 ChemDiv-N016-0042 PubChem-46397442


 91 97  0  0  0  0  0  0  0  0999 V2000
    5.5257   -3.0541   56.4124 C   0  0  0  0  0
    5.4313   -1.1603   57.9889 C   0  0  0  0  0
    6.1125    0.0141   58.6164 C   0  0  0  0  0
    6.6969    0.9149   57.5367 C   0  0  0  0  0
    5.7781    2.0794   57.1842 C   0  0  0  0  0
    3.3218    2.4551   56.6499 C   0  0  0  0  0
    1.9768    1.8270   56.4285 C   0  0  0  0  0
    0.2175    3.3841   56.7089 C   0  0  0  0  0
    0.4048    5.3138   57.7866 C   0  0  0  0  0
    1.4777    5.5938   58.8296 C   0  0  0  0  0
    0.8722    6.4044   59.9672 C   0  0  0  0  0
   -0.1413    7.4478   59.4678 C   0  0  0  0  0
   -0.1508    6.6383   57.2377 C   0  0  0  0  0
   -1.6222    7.3232   55.6936 C   0  0  0  0  0
   -2.2266    8.6606   56.1000 C   0  0  0  0  0
   -2.0368    9.6541   54.9593 C   0  0  0  0  0
   -2.3748    9.1038   53.5555 C   0  0  0  0  0
   -1.0723    8.9085   52.7919 C   0  0  0  0  0
   -3.1016    7.7215   53.6144 C   0  0  0  0  0
   -4.6179    7.9051   53.7685 C   0  0  0  0  0
   -5.2190    8.5592   52.5158 C   0  0  0  0  0
   -4.3004    9.6004   51.8288 C   0  0  0  0  0
   -3.5504    8.8833   50.7042 C   0  0  0  0  0
   -3.2610   10.1675   52.8447 C   0  0  0  0  0
   -2.5623   11.4290   52.3724 C   0  0  0  0  0
   -3.0569   12.1463   51.1907 C   0  0  0  0  0
   -4.2371   11.8449   50.6452 C   0  0  0  0  0
   -4.6082   12.4811   49.3420 C   0  0  0  0  0
   -5.8426   13.3671   49.5615 C   0  0  0  0  0
   -6.4009   13.9476   48.2632 C   0  0  0  0  0
   -7.7115   14.6376   48.5865 C   0  0  0  0  0
   -6.7075   12.7995   47.2919 C   0  0  0  0  0
   -5.4684   11.9485   47.0037 C   0  0  0  0  0
   -4.8316   11.3773   48.2744 C   0  0  0  0  0
   -3.4679   10.8465   47.8676 C   0  0  0  0  0
   -5.6580   10.1749   48.7841 C   0  0  0  0  0
   -6.1976   10.3215   50.2172 C   0  0  0  0  0
   -5.1482   10.7841   51.2533 C   0  0  0  0  0
   -5.9340   11.4461   52.3847 C   0  0  0  0  0
   -5.4590   14.9717   47.6748 C   0  0  0  0  0
   -4.2250   15.8972   45.6499 C   0  0  0  0  0
   -3.8020   15.3939   44.2824 C   0  0  0  0  0
   -2.7191   14.3411   44.4225 C   0  0  0  0  0
   -2.4115   13.7555   43.0949 C   0  0  0  0  0
   -3.1394   12.4232   41.1564 C   0  0  0  0  0
   -4.9720   17.1776   45.4916 C   0  0  0  0  0
   -6.9140   18.3890   44.5912 C   0  0  0  0  0
   -2.4469    6.6663   54.5651 C   0  0  0  0  0
   -3.4890    5.7032   55.1389 C   0  0  0  0  0
   -1.4858    5.8361   53.7334 C   0  0  0  0  0
   -1.5564    7.1543   59.8935 C   0  0  0  0  0
   -3.1207    6.1645   61.6420 C   0  0  0  0  0
   -4.0692    7.3476   61.8899 C   0  0  0  0  0
   -3.4084    8.5575   62.5600 C   0  0  0  0  0
   -3.4643    8.4690   64.0490 C   0  0  0  0  0
   -4.7736    8.1546   66.1042 C   0  0  0  0  0
   -2.9929    5.2471   62.8143 C   0  0  0  0  0
   -2.1432    4.8127   65.0768 C   0  0  0  0  0
   -0.3362    3.1106   55.3114 C   0  0  0  0  0
    0.7673    2.6681   54.3575 C   0  0  0  0  0
    1.6091    1.5513   54.9628 C   0  0  0  0  0
    6.3867    2.8493   56.0520 C   0  0  0  0  0
    8.0512    4.4812   55.2720 C   0  0  0  0  0
    6.1508   -2.0055   57.1465 O   0  0  0  0  0
    4.2070   -1.3701   58.2280 O   0  0  0  0  0
    3.4636    3.7093   56.6620 O   0  0  0  0  0
    0.9381    2.2999   57.2766 O   0  0  0  0  0
    0.9520    4.5735   56.7373 O   0  0  0  0  0
    1.9813    4.3931   59.3346 O   0  0  0  0  0
    1.8861    7.0472   60.6806 O   0  0  0  0  0
   -0.0063    7.7733   58.0922 O   0  0  0  0  0
   -1.4789    6.4879   56.8120 O   0  0  0  0  0
   -1.5683   11.8813   52.9941 O   0  0  0  0  0
   -5.0189   15.9061   48.4035 O   0  0  0  0  0
   -1.2800   13.9574   42.5778 O   0  0  0  0  0
   -3.3824   13.0044   42.4253 O   0  0  0  0  0
   -4.5107   18.2392   45.9975 O   0  0  0  0  0
   -6.1752   17.1938   44.7885 O   0  0  0  0  0
   -2.5238    7.4679   59.1493 O   0  0  0  0  0
   -2.3992    8.5426   64.7114 O   0  0  0  0  0
   -4.6913    8.3298   64.6983 O   0  0  0  0  0
   -3.3819    4.0493   62.7026 O   0  0  0  0  0
   -2.3720    5.6821   63.9807 O   0  0  0  0  0
   -1.3367    2.1412   55.3833 O   0  0  0  0  0
    1.5775    3.7547   54.0282 O   0  0  0  0  0
    0.9198    0.3428   54.8698 O   0  0  0  0  0
    6.0080    2.6385   54.8640 O   0  0  0  0  0
    7.4051    3.7703   56.3167 O   0  0  0  0  0
    4.4484    1.5956   56.8298 N   0  0  0  0  0
   -5.0765   14.9055   46.2952 N   0  0  0  0  0
   -1.7973    6.5792   61.1802 N   0  0  0  0  0
  1 64  1  0  0  0
  2 64  1  0  0  0
  3  2  1  0  0  0
  3  4  1  0  0  0
  4  5  1  0  0  0
  5 89  1  0  0  0
  5 62  1  0  0  0
  7  6  1  0  0  0
  7 67  1  0  0  0
  8 67  1  0  0  0
  8 68  1  0  0  0
  8 59  1  0  0  0
  9 68  1  0  0  0
  9 10  1  0  0  0
 10 69  1  0  0  0
 10 11  1  0  0  0
 11 70  1  0  0  0
 11 12  1  0  0  0
 12 71  1  0  0  0
 12 51  1  0  0  0
 13 71  1  0  0  0
 13 72  1  0  0  0
 13  9  1  0  0  0
 14 72  1  0  0  0
 14 15  1  0  0  0
 15 16  1  0  0  0
 16 17  1  0  0  0
 17 18  1  0  0  0
 17 19  1  0  0  0
 19 20  1  0  0  0
 19 48  1  0  0  0
 20 21  1  0  0  0
 21 22  1  0  0  0
 22 23  1  0  0  0
 22 24  1  0  0  0
 24 25  1  0  0  0
 24 17  1  0  0  0
 25 26  1  0  0  0
 28 27  1  0  0  0
 28 29  1  0  0  0
 29 30  1  0  0  0
 30 31  1  0  0  0
 30 32  1  0  0  0
 30 40  1  0  0  0
 32 33  1  0  0  0
 33 34  1  0  0  0
 34 35  1  0  0  0
 34 36  1  0  0  0
 34 28  1  0  0  0
 36 37  1  0  0  0
 37 38  1  0  0  0
 38 39  1  0  0  0
 38 27  1  0  0  0
 38 22  1  0  0  0
 40 90  1  0  0  0
 41 90  1  0  0  0
 41 42  1  0  0  0
 41 46  1  0  0  0
 42 43  1  0  0  0
 43 44  1  0  0  0
 44 76  1  0  0  0
 45 76  1  0  0  0
 46 78  1  0  0  0
 47 78  1  0  0  0
 48 49  1  0  0  0
 48 50  1  0  0  0
 48 14  1  0  0  0
 51 91  1  0  0  0
 52 91  1  0  0  0
 52 53  1  0  0  0
 52 57  1  0  0  0
 53 54  1  0  0  0
 54 55  1  0  0  0
 55 81  1  0  0  0
 56 81  1  0  0  0
 57 83  1  0  0  0
 58 83  1  0  0  0
 59 84  1  0  0  0
 59 60  1  0  0  0
 60 85  1  0  0  0
 60 61  1  0  0  0
 61 86  1  0  0  0
 61  7  1  0  0  0
 62 88  1  0  0  0
 63 88  1  0  0  0
 89  6  1  0  0  0
  2 65  2  0  0  0
  6 66  2  0  0  0
 25 73  2  0  0  0
 26 27  2  0  0  0
 40 74  2  0  0  0
 44 75  2  0  0  0
 46 77  2  0  0  0
 51 79  2  0  0  0
 55 80  2  0  0  0
 57 82  2  0  0  0
 62 87  2  0  0  0
M  END
> <rmsd>
0.691562772

$$$$
MolPort-046-788-300


 86 88  0  0  0  0  0  0  0  0999 V2000
    5.6538    8.6579   41.7281 C   0  0  0  0  0
    4.9603    9.5365   42.7512 C   0  0  0  0  0
    3.6754    8.8856   43.2389 C   0  0  0  0  0
    2.5969    8.9244   42.1650 C   0  0  0  0  0
    3.2136    9.4864   44.5695 C   0  0  0  0  0
    1.6883    8.8405   46.4941 C   0  0  0  0  0
    0.8819    7.7441   47.1179 C   0  0  0  0  0
   -0.2502    8.2828   47.9753 C   0  0  0  0  0
    2.5137    7.2398   49.0179 C   0  0  0  0  0
    3.6229    6.3767   49.5314 C   0  0  0  0  0
    4.1660    5.4267   48.4707 C   0  0  0  0  0
    5.4122    4.7510   48.9493 C   0  0  0  0  0
    5.5815    3.3853   49.1457 C   0  0  0  0  0
    7.4418    4.3238   49.6686 C   0  0  0  0  0
    8.7428    4.5735   50.0955 C   0  0  0  0  0
    9.1804    5.9082   50.1185 C   0  0  0  0  0
    8.3209    6.9520   49.7140 C   0  0  0  0  0
    7.0092    6.6703   49.2939 C   0  0  0  0  0
    6.6070    5.3372   49.2870 C   0  0  0  0  0
    3.8167    5.8397   51.9781 C   0  0  0  0  0
    3.3851    5.0164   53.1549 C   0  0  0  0  0
    1.8652    5.0300   53.3626 C   0  0  0  0  0
    1.3251    6.3684   53.7670 C   0  0  0  0  0
    1.1889    7.3991   52.8265 C   0  0  0  0  0
    0.6375    8.6268   53.2042 C   0  0  0  0  0
    0.2115    8.8260   54.5217 C   0  0  0  0  0
    0.3442    7.7988   55.4596 C   0  0  0  0  0
    0.8946    6.5714   55.0809 C   0  0  0  0  0
    4.8594    4.4969   55.1348 C   0  0  0  0  0
    5.6216    4.9871   56.3266 C   0  0  0  0  0
    6.9330    4.2393   56.5142 C   0  0  0  0  0
    7.9958    4.7558   55.5542 C   0  0  0  0  0
    8.4939    6.1287   55.9834 C   0  0  0  0  0
    8.8581    6.6336   58.4369 C   0  0  0  0  0
    3.8978    5.9042   57.9146 C   0  0  0  0  0
    3.1575    5.7810   59.2096 C   0  0  0  0  0
    1.8079    5.0960   59.0118 C   0  0  0  0  0
    2.8514   10.9431   44.5033 C   0  0  0  0  0
    1.2936   12.7748   43.6743 C   0  0  0  0  0
    2.3665   13.7980   43.2677 C   0  0  0  0  0
    2.8748   13.6680   41.8328 C   0  0  0  0  0
    3.8846   12.5434   41.7101 C   0  0  0  0  0
    4.4938   11.6138   39.4417 C   0  0  0  0  0
    0.0632   12.8939   42.8414 C   0  0  0  0  0
   -1.0724   12.6928   40.5963 C   0  0  0  0  0
   -0.9040   13.9867   39.7964 C   0  0  0  0  0
   -1.0312   15.2081   40.6875 C   0  0  0  0  0
   -1.2841   11.5322   39.6677 C   0  0  0  0  0
   -2.7326   10.4706   37.8670 C   0  0  0  0  0
   -4.1793   10.5585   37.3820 C   0  0  0  0  0
   -4.5274   11.9104   36.7687 C   0  0  0  0  0
   -4.9773   12.8889   37.8392 C   0  0  0  0  0
   -7.3921   13.5769   38.1708 C   0  0  0  0  0
   -1.7685   10.5567   36.7252 C   0  0  0  0  0
    2.1415    8.6878   45.1479 N   0  0  0  0  0
    1.7480    6.8426   47.8715 N   0  0  0  0  0
    6.8342    3.1248   49.5990 N   0  0  0  0  0
    3.1951    5.6328   50.7085 N   0  0  0  0  0
    4.0842    5.4264   54.3694 N   0  0  0  0  0
    9.2662    6.0204   57.2118 N   0  0  0  0  0
    9.6540    6.4543   59.5993 N   0  0  0  0  0
    7.7012    7.2080   58.5297 N   0  0  0  0  0
    4.8040    4.8730   57.5258 N   0  0  0  0  0
    2.9561    7.0942   59.7975 N   0  0  0  0  0
    1.7860   11.3992   43.6633 N   0  0  0  0  0
    4.5731   12.6352   40.4338 N   0  0  0  0  0
    5.3576   11.6602   38.3129 N   0  0  0  0  0
    3.6255   10.6613   39.5491 N   0  0  0  0  0
    0.0683   12.4656   41.4793 N   0  0  0  0  0
   -2.4569   11.5045   38.8569 N   0  0  0  0  0
   -6.3482   12.5987   38.2306 N   0  0  0  0  0
   -8.7343   13.2050   38.4838 N   0  0  0  0  0
   -7.1215   14.8136   37.9144 N   0  0  0  0  0
    2.0193    9.8565   47.1706 O   0  0  0  0  0
    2.2555    8.3195   49.6100 O   0  0  0  0  0
    4.7448    6.6860   52.0970 O   0  0  0  0  0
   -0.3492   10.0377   54.8951 O   0  0  0  0  0
    4.8595    3.2700   54.8408 O   0  0  0  0  0
    3.6919    6.8889   57.1554 O   0  0  0  0  0
    2.0114    3.7425   58.7233 O   0  0  0  0  0
    3.4892   11.7620   45.2154 O   0  0  0  0  0
   -0.9852   13.3688   43.3523 O   0  0  0  0  0
    0.3293   14.0121   39.1406 O   0  0  0  0  0
   -0.4407   10.6005   39.5912 O   0  0  0  0  0
   -1.5299   11.7705   36.0954 O   0  0  0  0  0
   -1.1830    9.5172   36.3229 O   0  0  0  0  0
  1  2  1  0  0  0
  2  3  1  0  0  0
  3  4  1  0  0  0
  3  5  1  0  0  0
  5 55  1  0  0  0
  5 38  1  0  0  0
  7  6  1  0  0  0
  7  8  1  0  0  0
  7 56  1  0  0  0
 10  9  1  0  0  0
 10 11  1  0  0  0
 10 58  1  0  0  0
 11 12  1  0  0  0
 13 57  1  0  0  0
 15 16  1  0  0  0
 17 18  1  0  0  0
 19 12  1  0  0  0
 19 14  1  0  0  0
 21 20  1  0  0  0
 21 22  1  0  0  0
 21 59  1  0  0  0
 22 23  1  0  0  0
 24 25  1  0  0  0
 26 77  1  0  0  0
 26 27  1  0  0  0
 28 23  1  0  0  0
 30 29  1  0  0  0
 30 31  1  0  0  0
 30 63  1  0  0  0
 31 32  1  0  0  0
 32 33  1  0  0  0
 33 60  1  0  0  0
 34 61  1  0  0  0
 36 35  1  0  0  0
 36 64  1  0  0  0
 36 37  1  0  0  0
 37 80  1  0  0  0
 38 65  1  0  0  0
 39 65  1  0  0  0
 39 40  1  0  0  0
 39 44  1  0  0  0
 40 41  1  0  0  0
 41 42  1  0  0  0
 42 66  1  0  0  0
 43 67  1  0  0  0
 44 69  1  0  0  0
 45 69  1  0  0  0
 45 46  1  0  0  0
 45 48  1  0  0  0
 46 47  1  0  0  0
 46 83  1  0  0  0
 48 70  1  0  0  0
 49 70  1  0  0  0
 49 50  1  0  0  0
 49 54  1  0  0  0
 50 51  1  0  0  0
 51 52  1  0  0  0
 52 71  1  0  0  0
 53 72  1  0  0  0
 54 85  1  0  0  0
 55  6  1  0  0  0
 56  9  1  0  0  0
 57 14  1  0  0  0
 58 20  1  0  0  0
 59 29  1  0  0  0
 60 34  1  0  0  0
 63 35  1  0  0  0
 66 43  1  0  0  0
 71 53  1  0  0  0
  6 74  2  0  0  0
  9 75  2  0  0  0
 12 13  2  0  0  0
 14 15  2  0  0  0
 16 17  2  0  0  0
 18 19  2  0  0  0
 20 76  2  0  0  0
 23 24  2  0  0  0
 25 26  2  0  0  0
 27 28  2  0  0  0
 29 78  2  0  0  0
 34 62  2  0  0  0
 35 79  2  0  0  0
 38 81  2  0  0  0
 43 68  2  0  0  0
 44 82  2  0  0  0
 48 84  2  0  0  0
 53 73  2  0  0  0
 54 86  2  0  0  0
M  END
> <rmsd>
0.812304556

$$$$
MolPort-039-052-305 PubChem-102004426


 60 68  0  0  0  0  0  0  0  0999 V2000
    1.4929   13.8067   43.8324 C   0  0  0  0  0
    0.6379   12.8147   44.6092 C   0  0  0  0  0
    0.2829   13.3593   45.9669 C   0  0  0  0  0
   -1.2295   13.1621   46.0638 C   0  0  0  0  0
   -1.5066   12.4856   47.4060 C   0  0  0  0  0
   -0.2219   12.7132   48.1723 C   0  0  0  0  0
    0.0598   11.8766   49.4181 C   0  0  0  0  0
   -1.0888   11.9865   50.4252 C   0  0  0  0  0
   -0.6968   11.5850   51.8222 C   0  0  0  0  0
    0.5703   11.3709   52.2148 C   0  0  0  0  0
    0.7958   11.0217   53.6616 C   0  0  0  0  0
    2.2271   10.5588   53.9598 C   0  0  0  0  0
    3.3154   11.4324   53.3191 C   0  0  0  0  0
    2.9096   12.1458   52.0191 C   0  0  0  0  0
    1.7478   11.4923   51.2614 C   0  0  0  0  0
    2.1528   10.1004   50.7727 C   0  0  0  0  0
    1.3764   12.3784   50.0525 C   0  0  0  0  0
    2.5370   12.4919   49.0258 C   0  0  0  0  0
    2.1300   13.2211   47.7347 C   0  0  0  0  0
    0.8781   12.5798   47.1443 C   0  0  0  0  0
    1.1492   11.0998   46.7967 C   0  0  0  0  0
    2.5569    8.5053   54.7721 C   0  0  0  0  0
    3.8258    8.2344   56.5947 C   0  0  0  0  0
    5.1622    8.5065   57.2548 C   0  0  0  0  0
    3.4486    6.7495   56.7879 C   0  0  0  0  0
    3.0376    6.4241   58.9716 C   0  0  0  0  0
    2.5618    6.1448   61.1417 C   0  0  0  0  0
    1.3298    5.7671   61.9266 C   0  0  0  0  0
    3.2982    4.8851   60.7289 C   0  0  0  0  0
    3.3401    4.9583   59.2326 C   0  0  0  0  0
    3.0049    6.0886   55.4717 C   0  0  0  0  0
    4.2077    4.2916   54.9474 C   0  0  0  0  0
    6.5012    4.2611   54.6628 C   0  0  0  0  0
    7.8155    4.0181   55.3771 C   0  0  0  0  0
    6.4393    3.4416   53.3706 C   0  0  0  0  0
    5.1049    3.7024   52.6819 C   0  0  0  0  0
    3.9341    3.5251   53.6482 C   0  0  0  0  0
    2.1278    7.0308   54.6174 C   0  0  0  0  0
   -0.7126   12.4937   43.9662 C   0  0  0  0  0
   -0.5652   11.1488   43.2212 C   0  0  0  0  0
   -0.6060   11.3367   41.7072 C   0  0  0  0  0
   -1.8335   12.1461   41.2785 C   0  0  0  0  0
   -2.9918   11.2183   40.9675 C   0  0  0  0  0
   -2.2513   13.1404   42.3682 C   0  0  0  0  0
    2.4015    9.2220   53.5789 O   0  0  0  0  0
    3.8820    8.5863   55.2328 O   0  0  0  0  0
    5.4573    9.8696   57.1936 O   0  0  0  0  0
    2.4197    6.6266   57.7295 O   0  0  0  0  0
    2.1945    6.8782   59.9967 O   0  0  0  0  0
    0.6403    6.9187   62.3254 O   0  0  0  0  0
    4.5969    4.9302   61.2310 O   0  0  0  0  0
    2.3214    4.1492   58.7139 O   0  0  0  0  0
    4.1368    5.6802   54.7536 O   0  0  0  0  0
    5.4419    3.9136   55.5319 O   0  0  0  0  0
    7.4779    3.8266   52.5168 O   0  0  0  0  0
    4.9538    2.8635   51.5742 O   0  0  0  0  0
    3.7324    2.1720   53.9348 O   0  0  0  0  0
    2.1361    6.6280   53.2745 O   0  0  0  0  0
   -1.6524   12.3350   45.0071 O   0  0  0  0  0
   -1.1269   13.5569   43.1101 O   0  0  0  0  0
  2  1  1  0  0  0
  2  3  1  0  0  0
  3  4  1  0  0  0
  4  5  1  0  0  0
  4 59  1  0  0  0
  6  5  1  0  0  0
  6  7  1  0  0  0
  7  8  1  0  0  0
  8  9  1  0  0  0
 11 10  1  0  0  0
 11 12  1  0  0  0
 12 13  1  0  0  0
 12 45  1  0  0  0
 13 14  1  0  0  0
 14 15  1  0  0  0
 15 16  1  0  0  0
 15 17  1  0  0  0
 15 10  1  0  0  0
 17 18  1  0  0  0
 17  7  1  0  0  0
 18 19  1  0  0  0
 19 20  1  0  0  0
 20 21  1  0  0  0
 20  3  1  0  0  0
 20  6  1  0  0  0
 22 45  1  0  0  0
 22 46  1  0  0  0
 23 46  1  0  0  0
 23 24  1  0  0  0
 23 25  1  0  0  0
 24 47  1  0  0  0
 25 48  1  0  0  0
 25 31  1  0  0  0
 26 48  1  0  0  0
 26 49  1  0  0  0
 27 49  1  0  0  0
 27 28  1  0  0  0
 27 29  1  0  0  0
 28 50  1  0  0  0
 29 51  1  0  0  0
 29 30  1  0  0  0
 30 52  1  0  0  0
 30 26  1  0  0  0
 31 53  1  0  0  0
 31 38  1  0  0  0
 32 53  1  0  0  0
 32 54  1  0  0  0
 33 54  1  0  0  0
 33 34  1  0  0  0
 33 35  1  0  0  0
 35 55  1  0  0  0
 35 36  1  0  0  0
 36 56  1  0  0  0
 36 37  1  0  0  0
 37 57  1  0  0  0
 37 32  1  0  0  0
 38 58  1  0  0  0
 38 22  1  0  0  0
 39 59  1  0  0  0
 39 40  1  0  0  0
 39  2  1  0  0  0
 39 60  1  0  0  0
 40 41  1  0  0  0
 41 42  1  0  0  0
 42 43  1  0  0  0
 42 44  1  0  0  0
 44 60  1  0  0  0
  9 10  2  0  0  0
M  END
> <rmsd>
0.574535608

$$$$
MolPort-005-945-178 PubChem-45359876


 96106  0  0  0  0  0  0  0  0999 V2000
   -2.8621   15.3222   28.9761 C   0  0  0  0  0
   -2.9874   15.5653   30.4717 C   0  0  0  0  0
   -3.5677   13.6032   31.7306 C   0  0  0  0  0
   -4.3532   13.0024   33.7345 C   0  0  0  0  0
   -5.5432   13.7710   34.3290 C   0  0  0  0  0
   -5.0914   14.5836   35.5522 C   0  0  0  0  0
   -6.2742   15.3034   36.1682 C   0  0  0  0  0
   -3.3162   13.2375   35.9954 C   0  0  0  0  0
   -1.2300   12.6059   36.6138 C   0  0  0  0  0
   -0.5803   13.9818   36.8133 C   0  0  0  0  0
   -0.3032   14.2225   38.2955 C   0  0  0  0  0
   -0.1317   11.9890   38.8262 C   0  0  0  0  0
   -0.9532   11.9488   41.0110 C   0  0  0  0  0
   -0.3497   13.2514   41.5607 C   0  0  0  0  0
    1.0362   13.0078   42.1690 C   0  0  0  0  0
    1.7547   14.3289   42.3660 C   0  0  0  0  0
    1.3232   10.8411   41.3910 C   0  0  0  0  0
    2.0475   10.5995   43.5519 C   0  0  0  0  0
    1.5092    9.6691   44.6315 C   0  0  0  0  0
    1.1761    9.4840   46.8827 C   0  0  0  0  0
    1.5766    9.1657   49.0858 C   0  0  0  0  0
    3.0739    9.0663   49.4039 C   0  0  0  0  0
    3.4484    9.8554   50.6565 C   0  0  0  0  0
    2.7553    9.3120   51.9191 C   0  0  0  0  0
    2.5766   10.4899   52.8728 C   0  0  0  0  0
    1.3259    8.7526   51.6023 C   0  0  0  0  0
    1.3255    7.2238   51.5395 C   0  0  0  0  0
    1.6867    6.6478   52.9054 C   0  0  0  0  0
    2.9513    7.2603   53.5528 C   0  0  0  0  0
    2.4800    8.0306   54.7928 C   0  0  0  0  0
    3.6703    8.2348   52.5761 C   0  0  0  0  0
    4.9803    8.8167   53.1413 C   0  0  0  0  0
    5.7023    7.9052   54.1014 C   0  0  0  0  0
    5.2397    6.7146   54.5205 C   0  0  0  0  0
    6.1193    5.9378   55.4775 C   0  0  0  0  0
    7.2359    5.2042   54.7331 C   0  0  0  0  0
    8.2881    4.6288   55.6936 C   0  0  0  0  0
    9.4625    5.5828   55.7614 C   0  0  0  0  0
    8.7737    3.3040   55.1389 C   0  0  0  0  0
    7.7544    4.4178   57.1185 C   0  0  0  0  0
    6.2965    3.9552   57.0927 C   0  0  0  0  0
    5.3526    5.0152   56.4684 C   0  0  0  0  0
    4.2164    4.2635   55.7457 C   0  0  0  0  0
    3.2645    5.2048   55.0050 C   0  0  0  0  0
    3.9478    6.1238   53.9663 C   0  0  0  0  0
    4.3128    5.2818   52.7402 C   0  0  0  0  0
    4.7604    5.8416   57.5922 C   0  0  0  0  0
    4.1808    6.0455   60.0019 C   0  0  0  0  0
    4.1831    4.1345   61.2891 C   0  0  0  0  0
    2.6564    4.0288   61.3642 C   0  0  0  0  0
    2.0224    4.7128   60.1560 C   0  0  0  0  0
    2.6465    6.0856   59.8816 C   0  0  0  0  0
    0.6805    9.3818   50.3397 C   0  0  0  0  0
   -0.6911    8.7709   50.0854 C   0  0  0  0  0
    0.4533   10.8741   50.5982 C   0  0  0  0  0
   -0.2696    8.9565   46.7539 C   0  0  0  0  0
   -1.4789    6.7992   47.2978 C   0  0  0  0  0
   -1.4027    5.3427   47.5847 C   0  0  0  0  0
   -0.9068    9.2761   45.3952 C   0  0  0  0  0
    0.0999    9.1746   44.2471 C   0  0  0  0  0
   -0.2093   10.6724   41.4572 C   0  0  0  0  0
   -0.4516   11.5335   37.3912 C   0  0  0  0  0
   -3.6012   12.2568   34.8409 C   0  0  0  0  0
   -2.2485   13.0326   31.1993 C   0  0  0  0  0
   -1.1280   14.0522   31.3733 C   0  0  0  0  0
   -1.6141   15.4911   31.1662 C   0  0  0  0  0
   -4.0213   14.7553   31.0283 O   0  0  0  0  0
   -3.4755   13.8883   33.0998 O   0  0  0  0  0
   -6.1062   14.6049   33.3616 O   0  0  0  0  0
   -4.5255   13.7364   36.5237 O   0  0  0  0  0
   -2.5764   12.6235   37.0208 O   0  0  0  0  0
    0.6031   14.0580   36.0837 O   0  0  0  0  0
    0.5524   13.2279   38.8166 O   0  0  0  0  0
   -1.2934   12.0260   39.6361 O   0  0  0  0  0
   -1.2011   13.7952   42.5197 O   0  0  0  0  0
    1.8136   12.1777   41.3362 O   0  0  0  0  0
    2.0357    9.9992   42.2833 O   0  0  0  0  0
    1.4828   10.3865   45.8411 O   0  0  0  0  0
    1.3344   10.1462   48.1079 O   0  0  0  0  0
    4.7128    3.2879   54.8753 O   0  0  0  0  0
    4.2237    6.9589   57.3475 O   0  0  0  0  0
    4.7802    5.3534   58.9031 O   0  0  0  0  0
    4.5916    5.4862   61.2364 O   0  0  0  0  0
    2.1902    4.6177   62.5413 O   0  0  0  0  0
    2.1608    3.8986   59.0313 O   0  0  0  0  0
    2.1303    7.0310   60.7733 O   0  0  0  0  0
   -2.5938    7.3859   47.3192 O   0  0  0  0  0
   -1.4554   10.5558   45.4220 O   0  0  0  0  0
    0.1729    7.8588   43.7916 O   0  0  0  0  0
   -0.6224    9.5613   40.7172 O   0  0  0  0  0
   -1.1407   10.3186   37.3990 O   0  0  0  0  0
   -4.3630   11.1777   35.2964 O   0  0  0  0  0
   -1.9287   11.8491   31.8659 O   0  0  0  0  0
   -0.0934   13.7710   30.4784 O   0  0  0  0  0
   -1.6684   16.1508   32.3940 O   0  0  0  0  0
   -0.2837    7.5216   47.0013 N   0  0  0  0  0
  1  2  1  0  0  0
  2 67  1  0  0  0
  3 67  1  0  0  0
  3 68  1  0  0  0
  3 64  1  0  0  0
  4 68  1  0  0  0
  4  5  1  0  0  0
  5 69  1  0  0  0
  5  6  1  0  0  0
  6  7  1  0  0  0
  6 70  1  0  0  0
  8 70  1  0  0  0
  8 71  1  0  0  0
  8 63  1  0  0  0
  9 71  1  0  0  0
  9 10  1  0  0  0
 10 72  1  0  0  0
 10 11  1  0  0  0
 11 73  1  0  0  0
 12 73  1  0  0  0
 12 74  1  0  0  0
 12 62  1  0  0  0
 13 74  1  0  0  0
 13 14  1  0  0  0
 14 75  1  0  0  0
 14 15  1  0  0  0
 15 16  1  0  0  0
 15 76  1  0  0  0
 17 76  1  0  0  0
 17 77  1  0  0  0
 17 61  1  0  0  0
 18 77  1  0  0  0
 19 18  1  0  0  0
 19 78  1  0  0  0
 20 78  1  0  0  0
 20 79  1  0  0  0
 20 56  1  0  0  0
 21 79  1  0  0  0
 21 22  1  0  0  0
 22 23  1  0  0  0
 23 24  1  0  0  0
 24 25  1  0  0  0
 24 26  1  0  0  0
 26 27  1  0  0  0
 26 53  1  0  0  0
 27 28  1  0  0  0
 28 29  1  0  0  0
 29 30  1  0  0  0
 29 31  1  0  0  0
 31 32  1  0  0  0
 31 24  1  0  0  0
 32 33  1  0  0  0
 35 34  1  0  0  0
 35 36  1  0  0  0
 36 37  1  0  0  0
 37 38  1  0  0  0
 37 39  1  0  0  0
 37 40  1  0  0  0
 40 41  1  0  0  0
 41 42  1  0  0  0
 42 43  1  0  0  0
 42 47  1  0  0  0
 42 35  1  0  0  0
 43 80  1  0  0  0
 43 44  1  0  0  0
 44 45  1  0  0  0
 45 46  1  0  0  0
 45 34  1  0  0  0
 45 29  1  0  0  0
 47 82  1  0  0  0
 48 82  1  0  0  0
 48 83  1  0  0  0
 49 83  1  0  0  0
 49 50  1  0  0  0
 50 84  1  0  0  0
 50 51  1  0  0  0
 51 85  1  0  0  0
 51 52  1  0  0  0
 52 86  1  0  0  0
 52 48  1  0  0  0
 53 54  1  0  0  0
 53 55  1  0  0  0
 53 21  1  0  0  0
 56 96  1  0  0  0
 56 59  1  0  0  0
 58 57  1  0  0  0
 59 88  1  0  0  0
 59 60  1  0  0  0
 60 89  1  0  0  0
 60 19  1  0  0  0
 61 90  1  0  0  0
 61 13  1  0  0  0
 62 91  1  0  0  0
 62  9  1  0  0  0
 63 92  1  0  0  0
 63  4  1  0  0  0
 64 93  1  0  0  0
 64 65  1  0  0  0
 65 94  1  0  0  0
 65 66  1  0  0  0
 66 95  1  0  0  0
 66  2  1  0  0  0
 96 57  1  0  0  0
 33 34  2  0  0  0
 47 81  2  0  0  0
 57 87  2  0  0  0
M  END
> <rmsd>
0.749414802

$$$$
MolPort-003-703-821 150421088 CSC028338914 ChemDiv-1611-0311 MCULE-8153538704 PubChem-3984305 ZINC000150421088


 63 68  0  0  0  0  0  0  0  0999 V2000
   -0.9779   13.8034   42.7245 O   0  0  0  0  0
   -1.8978   11.7440   42.8586 O   0  0  0  0  0
   -0.5591   12.5528   49.0239 O   0  0  0  0  0
    5.7983   13.0579   50.8478 O   0  0  0  0  0
    4.6962   13.9839   52.8221 O   0  0  0  0  0
    5.3511    7.5767   54.5479 O   0  0  0  0  0
    5.0800    3.1921   55.3175 O   0  0  0  0  0
    5.1317    4.8518   53.5265 O   0  0  0  0  0
    1.9888    6.4004   60.0166 O   0  0  0  0  0
    2.9223    4.4055   59.5035 O   0  0  0  0  0
    0.2803   15.5103   48.6691 O   0  0  0  0  0
   -0.9674   16.4650   46.8010 O   0  0  0  0  0
   -1.2421   12.6463   43.4205 N   0  0  0  0  0
    2.8399    8.4867   58.6612 N   0  0  0  0  0
    2.8159    5.6218   59.2349 N   0  0  0  0  0
   -0.7316   10.1148   44.8514 N   0  0  0  0  0
   -1.0039   12.5970   44.8358 C   0  0  0  0  0
   -1.0176   13.7949   45.5620 C   0  0  0  0  0
   -0.8693   13.8038   46.9519 C   0  0  0  0  0
   -0.7065   12.5863   47.6353 C   0  0  0  0  0
    0.6840   12.6300   49.6591 C   0  0  0  0  0
    1.8847   12.6556   48.9301 C   0  0  0  0  0
    3.1106   12.7408   49.5943 C   0  0  0  0  0
    3.1470   12.8034   50.9912 C   0  0  0  0  0
    1.9532   12.7764   51.7194 C   0  0  0  0  0
    0.7273   12.6899   51.0557 C   0  0  0  0  0
    4.9148   11.3250   52.6735 C   0  0  0  0  0
    4.0140   10.9475   53.6744 C   0  0  0  0  0
    4.1515    9.7135   54.3091 C   0  0  0  0  0
    5.1939    8.8409   53.9561 C   0  0  0  0  0
    4.7220    7.1144   55.7179 C   0  0  0  0  0
    4.1079    7.9955   56.6149 C   0  0  0  0  0
    3.4872    7.5479   57.7868 C   0  0  0  0  0
    3.0149    9.9113   58.6831 C   0  0  0  0  0
    2.0663   10.6961   59.3460 C   0  0  0  0  0
    2.2237   12.0857   59.4189 C   0  0  0  0  0
    3.3360   12.6963   58.8295 C   0  0  0  0  0
    4.2919   11.9185   58.1729 C   0  0  0  0  0
    4.1351   10.5303   58.1040 C   0  0  0  0  0
    3.4641    6.1613   58.0658 C   0  0  0  0  0
    4.1007    5.2825   57.1767 C   0  0  0  0  0
    4.7289    5.7438   56.0159 C   0  0  0  0  0
    7.2894    4.6962   55.1311 C   0  0  0  0  0
    6.0894    9.2241   52.9492 C   0  0  0  0  0
    5.9513   10.4594   52.3089 C   0  0  0  0  0
   -0.6877   11.3856   46.9202 C   0  0  0  0  0
   -0.8144   11.3762   45.5279 C   0  0  0  0  0
    0.1723    9.8199   43.7800 C   0  0  0  0  0
   -0.0030    8.6429   43.0449 C   0  0  0  0  0
    0.8723    8.3259   42.0027 C   0  0  0  0  0
    1.9348    9.1822   41.6966 C   0  0  0  0  0
    2.1231   10.3544   42.4345 C   0  0  0  0  0
    1.2468   10.6721   43.4760 C   0  0  0  0  0
   -2.4122   15.4444   48.8047 C   0  0  0  0  0
    4.6851   12.8492   51.8363 S   0  0  0  0  0
    5.5208    4.5825   54.9529 S   0  0  0  0  0
   -0.9381   15.3464   47.8054 S   0  0  0  0  0
    7.6262    4.5947   56.4675 F   0  0  0  0  0
    7.7294    5.9098   54.6408 F   0  0  0  0  0
    7.8927    3.6720   54.4266 F   0  0  0  0  0
   -2.3389   14.5368   49.8446 F   0  0  0  0  0
   -2.5319   16.7217   49.3220 F   0  0  0  0  0
   -3.5196   15.1609   48.0256 F   0  0  0  0  0
 13  1  1  0  0  0
 13 17  1  0  0  0
 14 34  1  0  0  0
 15  9  1  0  0  0
 16 48  1  0  0  0
 18 19  1  0  0  0
 20  3  1  0  0  0
 20 46  1  0  0  0
 21  3  1  0  0  0
 22 23  1  0  0  0
 24 25  1  0  0  0
 26 21  1  0  0  0
 28 29  1  0  0  0
 30  6  1  0  0  0
 30 44  1  0  0  0
 31  6  1  0  0  0
 32 33  1  0  0  0
 33 14  1  0  0  0
 35 36  1  0  0  0
 37 38  1  0  0  0
 39 34  1  0  0  0
 40 41  1  0  0  0
 40 15  1  0  0  0
 42 31  1  0  0  0
 43 58  1  0  0  0
 43 59  1  0  0  0
 43 60  1  0  0  0
 45 27  1  0  0  0
 47 16  1  0  0  0
 47 17  1  0  0  0
 49 50  1  0  0  0
 51 52  1  0  0  0
 53 48  1  0  0  0
 54 61  1  0  0  0
 54 62  1  0  0  0
 54 63  1  0  0  0
 55 24  1  0  0  0
 55 27  1  0  0  0
 56 42  1  0  0  0
 56 43  1  0  0  0
 57 19  1  0  0  0
 57 54  1  0  0  0
 13  2  2  0  0  0
 15 10  2  0  0  0
 17 18  2  0  0  0
 19 20  2  0  0  0
 21 22  2  0  0  0
 23 24  2  0  0  0
 25 26  2  0  0  0
 27 28  2  0  0  0
 29 30  2  0  0  0
 31 32  2  0  0  0
 33 40  2  0  0  0
 34 35  2  0  0  0
 36 37  2  0  0  0
 38 39  2  0  0  0
 41 42  2  0  0  0
 44 45  2  0  0  0
 46 47  2  0  0  0
 48 49  2  0  0  0
 50 51  2  0  0  0
 52 53  2  0  0  0
 55  4  2  0  0  0
 55  5  2  0  0  0
 56  7  2  0  0  0
 56  8  2  0  0  0
 57 11  2  0  0  0
 57 12  2  0  0  0
M  CHG  4   1  -1  13   1  15   1   9  -1
M  END
> <rmsd>
0.652569354

$$$$
MolPort-003-703-821 150421088 CSC028338914 ChemDiv-1611-0311 MCULE-8153538704 PubChem-3984305 ZINC000150421088


 63 68  0  0  0  0  0  0  0  0999 V2000
    0.2795   15.4511   43.2546 O   0  0  0  0  0
   -0.8117   13.4735   43.1936 O   0  0  0  0  0
    0.3704   13.6752   49.4401 O   0  0  0  0  0
    6.6793   13.4907   51.4802 O   0  0  0  0  0
    5.5884   14.3482   53.4913 O   0  0  0  0  0
    5.6498    7.7922   54.7055 O   0  0  0  0  0
    4.9899    3.3996   55.1059 O   0  0  0  0  0
    5.2421    5.1852   53.4589 O   0  0  0  0  0
    2.0104    6.4782   59.9613 O   0  0  0  0  0
    2.7934    4.4578   59.3138 O   0  0  0  0  0
    1.4635   16.5692   49.3524 O   0  0  0  0  0
    0.3658   17.7714   47.5338 O   0  0  0  0  0
   -0.1039   14.2694   43.8459 N   0  0  0  0  0
    3.0785    8.5849   58.8059 N   0  0  0  0  0
    2.7974    5.6961   59.1426 N   0  0  0  0  0
    0.1445   11.5984   45.0790 N   0  0  0  0  0
    0.0792   14.0882   45.2587 C   0  0  0  0  0
    0.1389   15.2217   46.0796 C   0  0  0  0  0
    0.2381   15.1080   47.4693 C   0  0  0  0  0
    0.2755   13.8308   48.0552 C   0  0  0  0  0
    1.5924   13.5957   50.1147 C   0  0  0  0  0
    2.8161   13.5764   49.4249 C   0  0  0  0  0
    4.0205   13.5040   50.1287 C   0  0  0  0  0
    4.0126   13.4526   51.5265 C   0  0  0  0  0
    2.7956   13.4700   52.2156 C   0  0  0  0  0
    1.5910   13.5411   51.5122 C   0  0  0  0  0
    5.5914   11.7004   53.1321 C   0  0  0  0  0
    4.6277   11.3232   54.0726 C   0  0  0  0  0
    4.6402   10.0357   54.6080 C   0  0  0  0  0
    5.6187    9.1080   54.2148 C   0  0  0  0  0
    4.9436    7.2942   55.8153 C   0  0  0  0  0
    4.3731    8.1507   56.7634 C   0  0  0  0  0
    3.6765    7.6665   57.8766 C   0  0  0  0  0
    3.3698    9.9832   58.9492 C   0  0  0  0  0
    2.4666   10.7912   59.6466 C   0  0  0  0  0
    2.7356   12.1522   59.8374 C   0  0  0  0  0
    3.9147   12.7104   59.3320 C   0  0  0  0  0
    4.8257   11.9083   58.6415 C   0  0  0  0  0
    4.5571   10.5483   58.4549 C   0  0  0  0  0
    3.5289    6.2692   58.0405 C   0  0  0  0  0
    4.1218    5.4123   57.1011 C   0  0  0  0  0
    4.8266    5.9088   56.0003 C   0  0  0  0  0
    7.3214    4.7199   55.1064 C   0  0  0  0  0
    6.5779    9.4919   53.2686 C   0  0  0  0  0
    6.5651   10.7812   52.7278 C   0  0  0  0  0
    0.2202   12.6933   47.2452 C   0  0  0  0  0
    0.1425   12.8048   45.8538 C   0  0  0  0  0
    1.0583   11.3132   44.0133 C   0  0  0  0  0
    0.8124   10.2172   43.1798 C   0  0  0  0  0
    1.6948    9.9101   42.1406 C   0  0  0  0  0
    2.8346   10.6942   41.9361 C   0  0  0  0  0
    3.0930   11.7840   42.7724 C   0  0  0  0  0
    2.2097   12.0920   43.8110 C   0  0  0  0  0
   -1.2283   16.7226   49.4052 C   0  0  0  0  0
    5.5184   13.3001   52.4161 S   0  0  0  0  0
    5.5568    4.7718   54.8691 S   0  0  0  0  0
    0.2670   16.5786   48.4437 S   0  0  0  0  0
    7.6012    4.4846   56.4391 F   0  0  0  0  0
    7.8773    5.9265   54.7298 F   0  0  0  0  0
    7.8625    3.7069   54.3381 F   0  0  0  0  0
   -1.2672   15.7326   50.3690 F   0  0  0  0  0
   -1.2603   17.9605   50.0215 F   0  0  0  0  0
   -2.3272   16.5971   48.5741 F   0  0  0  0  0
 13  1  1  0  0  0
 13 17  1  0  0  0
 14 34  1  0  0  0
 15  9  1  0  0  0
 16 48  1  0  0  0
 18 19  1  0  0  0
 20  3  1  0  0  0
 20 46  1  0  0  0
 21  3  1  0  0  0
 22 23  1  0  0  0
 24 25  1  0  0  0
 26 21  1  0  0  0
 28 29  1  0  0  0
 30  6  1  0  0  0
 30 44  1  0  0  0
 31  6  1  0  0  0
 32 33  1  0  0  0
 33 14  1  0  0  0
 35 36  1  0  0  0
 37 38  1  0  0  0
 39 34  1  0  0  0
 40 41  1  0  0  0
 40 15  1  0  0  0
 42 31  1  0  0  0
 43 58  1  0  0  0
 43 59  1  0  0  0
 43 60  1  0  0  0
 45 27  1  0  0  0
 47 16  1  0  0  0
 47 17  1  0  0  0
 49 50  1  0  0  0
 51 52  1  0  0  0
 53 48  1  0  0  0
 54 61  1  0  0  0
 54 62  1  0  0  0
 54 63  1  0  0  0
 55 24  1  0  0  0
 55 27  1  0  0  0
 56 42  1  0  0  0
 56 43  1  0  0  0
 57 19  1  0  0  0
 57 54  1  0  0  0
 13  2  2  0  0  0
 15 10  2  0  0  0
 17 18  2  0  0  0
 19 20  2  0  0  0
 21 22  2  0  0  0
 23 24  2  0  0  0
 25 26  2  0  0  0
 27 28  2  0  0  0
 29 30  2  0  0  0
 31 32  2  0  0  0
 33 40  2  0  0  0
 34 35  2  0  0  0
 36 37  2  0  0  0
 38 39  2  0  0  0
 41 42  2  0  0  0
 44 45  2  0  0  0
 46 47  2  0  0  0
 48 49  2  0  0  0
 50 51  2  0  0  0
 52 53  2  0  0  0
 55  4  2  0  0  0
 55  5  2  0  0  0
 56  7  2  0  0  0
 56  8  2  0  0  0
 57 11  2  0  0  0
 57 12  2  0  0  0
M  CHG  4   1  -1  13   1  15   1   9  -1
M  END
> <rmsd>
0.662988842

$$$$
MolPort-006-536-872 ChemDiv-V007-4612 MCULE-3860032782 PubChem-46002667 ZINC000103094759


 45 50  0  0  0  0  0  0  0  0999 V2000
   -1.8392   12.8730   41.9681 C   0  0  0  0  0
   -0.2950   13.0390   43.8933 C   0  0  0  0  0
   -0.0183   11.6658   43.8764 C   0  0  0  0  0
    0.8396   11.1114   44.8264 C   0  0  0  0  0
    1.4458   11.9137   45.8035 C   0  0  0  0  0
    1.2112   13.3138   45.7857 C   0  0  0  0  0
    3.2398   14.1568   46.9182 C   0  0  0  0  0
    0.3229   13.8503   44.8471 C   0  0  0  0  0
    2.2379   11.2384   46.8521 C   0  0  0  0  0
    2.1309   11.6171   48.1931 C   0  0  0  0  0
    2.8546   10.9244   49.1588 C   0  0  0  0  0
    3.6675    9.8538   48.7729 C   0  0  0  0  0
    5.3768    8.0896   49.3109 C   0  0  0  0  0
    5.1963    6.8343   50.1579 C   0  0  0  0  0
    4.2264    8.2142   52.0084 C   0  0  0  0  0
    4.3967    9.4730   51.1622 C   0  0  0  0  0
    6.1037    6.5975   52.4922 C   0  0  0  0  0
    6.0188    6.8779   53.9592 C   0  0  0  0  0
    3.7671    6.0891   54.7093 C   0  0  0  0  0
    3.3596    6.2765   56.1313 C   0  0  0  0  0
    3.5611    7.5247   56.7635 C   0  0  0  0  0
    3.2164    7.7051   58.1157 C   0  0  0  0  0
    2.6776    6.6130   58.7917 C   0  0  0  0  0
    1.7764    5.2062   60.3421 C   0  0  0  0  0
    2.4849    5.4124   58.1865 C   0  0  0  0  0
    2.8170    5.1950   56.8517 C   0  0  0  0  0
    5.7695    4.5921   54.9871 C   0  0  0  0  0
    7.2088    4.4438   55.2774 C   0  0  0  0  0
    7.8849    5.2871   56.1863 C   0  0  0  0  0
    9.2516    5.1030   56.4183 C   0  0  0  0  0
    9.9506    4.0878   55.7616 C   0  0  0  0  0
    9.2827    3.2418   54.8755 C   0  0  0  0  0
    7.9176    3.4172   54.6383 C   0  0  0  0  0
   -1.1688   13.6224   42.9718 O   0  0  0  0  0
    1.8442   14.2061   46.6572 O   0  0  0  0  0
    6.9853    5.7987   52.0751 O   0  0  0  0  0
    2.2640    6.5357   60.1068 O   0  0  0  0  0
    1.9383    4.5237   59.0906 O   0  0  0  0  0
    5.0300    3.5717   55.0337 O   0  0  0  0  0
    3.7160    9.5088   47.4567 N   0  0  0  0  0
    3.0215   10.1733   46.5308 N   0  0  0  0  0
    4.4271    9.1143   49.7433 N   0  0  0  0  0
    5.1840    7.2011   51.5712 N   0  0  0  0  0
    5.2055    5.8644   54.6220 N   0  0  0  0  0
    7.0526    6.5267   57.1153 Cl  0  0  0  0  0
  1 34  1  0  0  0
  2 34  1  0  0  0
  3  4  1  0  0  0
  5  6  1  0  0  0
  5  9  1  0  0  0
  6 35  1  0  0  0
  7 35  1  0  0  0
  8  2  1  0  0  0
  9 41  1  0  0  0
 10 11  1  0  0  0
 12 40  1  0  0  0
 12 42  1  0  0  0
 13 42  1  0  0  0
 13 14  1  0  0  0
 14 43  1  0  0  0
 15 43  1  0  0  0
 15 16  1  0  0  0
 16 42  1  0  0  0
 18 17  1  0  0  0
 18 44  1  0  0  0
 19 44  1  0  0  0
 19 20  1  0  0  0
 21 22  1  0  0  0
 23 37  1  0  0  0
 24 37  1  0  0  0
 24 38  1  0  0  0
 25 38  1  0  0  0
 25 23  1  0  0  0
 26 20  1  0  0  0
 27 28  1  0  0  0
 29 45  1  0  0  0
 29 30  1  0  0  0
 31 32  1  0  0  0
 33 28  1  0  0  0
 43 17  1  0  0  0
 44 27  1  0  0  0
  2  3  2  0  0  0
  4  5  2  0  0  0
  6  8  2  0  0  0
  9 10  2  0  0  0
 11 12  2  0  0  0
 17 36  2  0  0  0
 20 21  2  0  0  0
 22 23  2  0  0  0
 25 26  2  0  0  0
 27 39  2  0  0  0
 28 29  2  0  0  0
 30 31  2  0  0  0
 32 33  2  0  0  0
 40 41  2  0  0  0
M  END
> <rmsd>
0.644961357

$$$$
MolPort-001-741-845 PubChem-44715623


 58 64  0  0  0  0  0  0  0  0999 V2000
   -2.0504   13.4386   49.8625 C   0  0  0  0  0
   -0.7567   13.2965   49.0792 C   0  0  0  0  0
   -1.1001   13.1661   47.6037 C   0  0  0  0  0
   -0.3590   14.2351   46.8233 C   0  0  0  0  0
   -0.6921   14.1219   45.3734 C   0  0  0  0  0
   -1.3033   15.0912   44.6842 C   0  0  0  0  0
   -1.7042   16.3695   45.3503 C   0  0  0  0  0
   -1.5810   14.9148   43.2471 C   0  0  0  0  0
    0.0492   12.0886   49.5919 C   0  0  0  0  0
    1.2546   11.7299   48.6985 C   0  0  0  0  0
    2.3875   11.2763   49.6354 C   0  0  0  0  0
    1.7337   11.1483   51.0027 C   0  0  0  0  0
    0.6776   12.2744   50.9807 C   0  0  0  0  0
   -0.2690   12.1889   52.2020 C   0  0  0  0  0
    0.5178   12.2416   53.5303 C   0  0  0  0  0
    1.8003   11.3900   53.5057 C   0  0  0  0  0
    2.6535   11.3603   52.2186 C   0  0  0  0  0
    3.8870   10.4467   52.3009 C   0  0  0  0  0
    3.5526    9.0394   52.7809 C   0  0  0  0  0
    2.7362    8.9944   54.0860 C   0  0  0  0  0
    1.8809   10.2121   54.4623 C   0  0  0  0  0
    2.6451   11.4998   54.7627 C   0  0  0  0  0
    0.8331    9.9652   55.5342 C   0  0  0  0  0
    1.5193    9.3529   56.7564 C   0  0  0  0  0
    2.2862    8.0702   56.3920 C   0  0  0  0  0
    3.3674    8.2887   55.3008 C   0  0  0  0  0
    4.5330    9.1096   55.8428 C   0  0  0  0  0
    3.8982    6.9280   54.8733 C   0  0  0  0  0
    1.9636    6.5082   57.9690 C   0  0  0  0  0
    1.9722    6.3607   59.4994 C   0  0  0  0  0
    3.2836    5.7380   60.0014 C   0  0  0  0  0
    3.6486    4.5063   59.1676 C   0  0  0  0  0
    3.5483    4.8706   57.6758 C   0  0  0  0  0
    3.9952    3.7333   56.7754 C   0  0  0  0  0
    6.2220    3.7599   55.7290 C   0  0  0  0  0
    7.6970    3.6348   55.8704 C   0  0  0  0  0
    3.5080    2.3725   60.0391 C   0  0  0  0  0
    3.8926    2.5753   61.5169 C   0  0  0  0  0
    4.4660    1.2500   62.0302 C   0  0  0  0  0
    5.5089    0.6572   61.0713 C   0  0  0  0  0
    4.9532    0.6829   59.6423 C   0  0  0  0  0
    1.3543   13.6636   51.0350 C   0  0  0  0  0
    1.1066    9.7447   51.0572 C   0  0  0  0  0
   -1.2844   13.8375   42.6613 O   0  0  0  0  0
   -2.1638   15.9467   42.5189 O   0  0  0  0  0
    2.8537    7.5124   57.5463 O   0  0  0  0  0
    2.2378    5.2691   57.3382 O   0  0  0  0  0
    5.4080    3.5940   56.8504 O   0  0  0  0  0
    5.7240    4.0112   54.5994 O   0  0  0  0  0
    2.7751    3.4462   59.4813 O   0  0  0  0  0
    4.6223    1.9953   59.2584 O   0  0  0  0  0
    6.7040    1.3790   61.1278 O   0  0  0  0  0
    4.9908    1.3930   63.3140 O   0  0  0  0  0
    4.8483    3.5893   61.6416 O   0  0  0  0  0
    4.3273    6.6683   59.9473 O   0  0  0  0  0
    1.7353    7.5912   60.1162 O   0  0  0  0  0
   -1.0941   11.0629   52.1651 O   0  0  0  0  0
    0.9081   10.6866   47.8397 O   0  0  0  0  0
  2  1  1  0  0  0
  2  3  1  0  0  0
  3  4  1  0  0  0
  4  5  1  0  0  0
  6  8  1  0  0  0
  7  6  1  0  0  0
  8 45  1  0  0  0
  9  2  1  0  0  0
  9 10  1  0  0  0
 10 11  1  0  0  0
 10 58  1  0  0  0
 11 12  1  0  0  0
 12 13  1  0  0  0
 12 43  1  0  0  0
 13 14  1  0  0  0
 13 42  1  0  0  0
 13  9  1  0  0  0
 14 15  1  0  0  0
 14 57  1  0  0  0
 16 15  1  0  0  0
 16 17  1  0  0  0
 17 18  1  0  0  0
 17 12  1  0  0  0
 18 19  1  0  0  0
 20 19  1  0  0  0
 20 21  1  0  0  0
 21 22  1  0  0  0
 21 23  1  0  0  0
 21 16  1  0  0  0
 22 16  1  0  0  0
 23 24  1  0  0  0
 24 25  1  0  0  0
 25 26  1  0  0  0
 25 46  1  0  0  0
 26 27  1  0  0  0
 26 28  1  0  0  0
 26 20  1  0  0  0
 29 46  1  0  0  0
 29 30  1  0  0  0
 29 47  1  0  0  0
 30 31  1  0  0  0
 30 56  1  0  0  0
 31 32  1  0  0  0
 31 55  1  0  0  0
 32 33  1  0  0  0
 32 50  1  0  0  0
 33 47  1  0  0  0
 33 34  1  0  0  0
 34 48  1  0  0  0
 35 48  1  0  0  0
 36 35  1  0  0  0
 37 50  1  0  0  0
 37 38  1  0  0  0
 37 51  1  0  0  0
 38 39  1  0  0  0
 38 54  1  0  0  0
 39 40  1  0  0  0
 39 53  1  0  0  0
 40 41  1  0  0  0
 40 52  1  0  0  0
 41 51  1  0  0  0
  5  6  2  0  0  0
  8 44  2  0  0  0
 35 49  2  0  0  0
M  END
> <rmsd>
0.610499024

$$$$
MolPort-044-561-707 LN02124467 MCULE-3201200028 PubChem-123918


 72 75  0  0  0  0  0  0  0  0999 V2000
   -0.3395   11.7677   61.2129 C   0  0  0  0  0
   -1.4146   11.6045   60.2002 C   0  0  0  0  0
   -1.4705   10.4469   59.4238 C   0  0  0  0  0
   -2.4700   10.2858   58.4587 C   0  0  0  0  0
   -3.4611   11.2868   58.2953 C   0  0  0  0  0
   -3.3753   12.4545   59.0732 C   0  0  0  0  0
   -2.3579   12.6159   60.0150 C   0  0  0  0  0
   -5.2049    9.8055   57.1874 C   0  0  0  0  0
   -5.6919    9.2208   58.4720 C   0  0  0  0  0
   -6.9069    9.4947   60.5937 C   0  0  0  0  0
   -8.9112   10.9036   60.8536 C   0  0  0  0  0
   -9.6341   11.9600   61.6095 C   0  0  0  0  0
   -5.2234   12.2735   56.7914 C   0  0  0  0  0
   -6.4516   12.6684   57.5414 C   0  0  0  0  0
   -7.4910   14.0355   59.3176 C   0  0  0  0  0
   -8.2843   15.9818   58.0257 C   0  0  0  0  0
   -9.3348   16.6024   57.1770 C   0  0  0  0  0
   -2.2751    9.2108   56.2520 C   0  0  0  0  0
   -0.8437    9.5855   55.9065 C   0  0  0  0  0
    1.0550    8.0230   55.5649 C   0  0  0  0  0
    1.7713    6.8830   55.9999 C   0  0  0  0  0
    2.7918    6.3698   55.1827 C   0  0  0  0  0
    3.1072    6.9712   53.9643 C   0  0  0  0  0
    2.3939    8.0912   53.5265 C   0  0  0  0  0
    1.3700    8.6068   54.3268 C   0  0  0  0  0
    2.6989    8.7173   52.2308 C   0  0  0  0  0
    3.9266    8.6128   51.5694 C   0  0  0  0  0
    3.7292    9.3518   50.4255 C   0  0  0  0  0
    2.4503    9.8371   50.4415 C   0  0  0  0  0
    1.9414   10.5995   49.3949 C   0  0  0  0  0
    2.7941   10.8861   48.3093 C   0  0  0  0  0
    4.1253   10.4017   48.3109 C   0  0  0  0  0
    4.6064    9.6210   49.3773 C   0  0  0  0  0
    2.2867   11.6686   47.1713 C   0  0  0  0  0
    0.3471   12.6459   45.9770 C   0  0  0  0  0
   -0.0278   12.2835   43.5660 C   0  0  0  0  0
    0.2296   11.4736   42.3453 C   0  0  0  0  0
    1.3905    4.7415   57.2461 C   0  0  0  0  0
    2.6316    4.1781   57.8494 C   0  0  0  0  0
    5.0688    3.8275   57.7310 C   0  0  0  0  0
    6.3776    4.0358   55.6450 C   0  0  0  0  0
    7.5497    4.6164   54.9367 C   0  0  0  0  0
    0.8968    6.8989   58.3863 C   0  0  0  0  0
    1.9702    7.5716   59.1763 C   0  0  0  0  0
    4.1960    8.6365   59.2786 C   0  0  0  0  0
    5.7867    6.8411   59.8498 C   0  0  0  0  0
    6.3137    5.8835   60.8566 C   0  0  0  0  0
   -4.5890   11.1133   57.4090 N   0  0  0  0  0
    1.7950    9.4643   51.5491 N   0  0  0  0  0
    1.4391    6.1982   57.2270 N   0  0  0  0  0
   -5.4229    8.0189   58.7434 O   0  0  0  0  0
   -6.4510    9.9989   59.3467 O   0  0  0  0  0
   -7.6472   10.4963   61.2782 O   0  0  0  0  0
   -9.4523   10.3838   59.8406 O   0  0  0  0  0
   -7.5436   12.0885   57.2944 O   0  0  0  0  0
   -6.3716   13.6579   58.5245 O   0  0  0  0  0
   -8.4694   14.6873   58.5153 O   0  0  0  0  0
   -7.2406   16.6336   58.2997 O   0  0  0  0  0
   -2.4333    9.1393   57.6646 O   0  0  0  0  0
    0.0352    8.5606   56.3578 O   0  0  0  0  0
    3.0818   12.0657   46.2742 O   0  0  0  0  0
    0.9176   11.9504   47.0789 O   0  0  0  0  0
    0.5519   11.9035   44.7765 O   0  0  0  0  0
   -0.7773   13.2965   43.4946 O   0  0  0  0  0
    2.5449    3.4731   58.8911 O   0  0  0  0  0
    3.8685    4.4156   57.2479 O   0  0  0  0  0
    6.1781    4.3281   56.9948 O   0  0  0  0  0
    5.5727    3.2989   55.0153 O   0  0  0  0  0
    1.7574    7.8317   60.3910 O   0  0  0  0  0
    3.1684    7.9540   58.5659 O   0  0  0  0  0
    4.8040    7.7605   60.2220 O   0  0  0  0  0
    6.2497    6.8292   58.6759 O   0  0  0  0  0
  1  2  1  0  0  0
  3  4  1  0  0  0
  4 59  1  0  0  0
  5  6  1  0  0  0
  5 48  1  0  0  0
  7  2  1  0  0  0
  8 48  1  0  0  0
  8  9  1  0  0  0
  9 52  1  0  0  0
 10 52  1  0  0  0
 10 53  1  0  0  0
 11 53  1  0  0  0
 12 11  1  0  0  0
 13 48  1  0  0  0
 13 14  1  0  0  0
 14 56  1  0  0  0
 15 56  1  0  0  0
 15 57  1  0  0  0
 16 57  1  0  0  0
 17 16  1  0  0  0
 18 59  1  0  0  0
 18 19  1  0  0  0
 19 60  1  0  0  0
 20 60  1  0  0  0
 21 22  1  0  0  0
 21 50  1  0  0  0
 23 24  1  0  0  0
 24 26  1  0  0  0
 25 20  1  0  0  0
 27 28  1  0  0  0
 29 49  1  0  0  0
 29 30  1  0  0  0
 31 32  1  0  0  0
 31 34  1  0  0  0
 33 28  1  0  0  0
 34 62  1  0  0  0
 35 62  1  0  0  0
 35 63  1  0  0  0
 36 63  1  0  0  0
 37 36  1  0  0  0
 38 50  1  0  0  0
 38 39  1  0  0  0
 39 66  1  0  0  0
 40 66  1  0  0  0
 40 67  1  0  0  0
 41 67  1  0  0  0
 42 41  1  0  0  0
 43 50  1  0  0  0
 43 44  1  0  0  0
 44 70  1  0  0  0
 45 70  1  0  0  0
 45 71  1  0  0  0
 46 71  1  0  0  0
 47 46  1  0  0  0
 49 26  1  0  0  0
  2  3  2  0  0  0
  4  5  2  0  0  0
  6  7  2  0  0  0
  9 51  2  0  0  0
 11 54  2  0  0  0
 14 55  2  0  0  0
 16 58  2  0  0  0
 20 21  2  0  0  0
 22 23  2  0  0  0
 24 25  2  0  0  0
 26 27  2  0  0  0
 28 29  2  0  0  0
 30 31  2  0  0  0
 32 33  2  0  0  0
 34 61  2  0  0  0
 36 64  2  0  0  0
 39 65  2  0  0  0
 41 68  2  0  0  0
 44 69  2  0  0  0
 46 72  2  0  0  0
M  END
> <rmsd>
0.785632968

$$$$
MolPort-046-589-459 MolPort-047-587-201 CHEMBL1949899 PubChem-65113 PubChem-71531928


 63 65  0  0  0  0  0  0  0  0999 V2000
   -3.2707   19.8811   37.4268 C   0  0  0  0  0
   -2.8777   20.8617   36.3315 C   0  0  0  0  0
   -1.4089   20.7139   35.9770 C   0  0  0  0  0
   -1.1899   19.4605   35.1458 C   0  0  0  0  0
    0.2646   19.3475   34.7212 C   0  0  0  0  0
    1.1588   18.9763   35.8958 C   0  0  0  0  0
    1.1867   17.4665   36.1071 C   0  0  0  0  0
   -0.0169   16.9865   36.9046 C   0  0  0  0  0
    0.1118   17.4053   38.3558 C   0  0  0  0  0
   -0.9609   16.7087   39.1772 C   0  0  0  0  0
   -0.9025   17.1480   40.6328 C   0  0  0  0  0
    0.3699   16.6608   41.3211 C   0  0  0  0  0
    0.3511   15.1516   41.5432 C   0  0  0  0  0
   -0.5314   14.7816   42.6944 C   0  0  0  0  0
    0.9565   13.9479   44.7006 C   0  0  0  0  0
    0.1630   12.7095   45.0839 C   0  0  0  0  0
   -0.1666   12.0067   47.4830 C   0  0  0  0  0
   -0.8153   12.2401   48.8050 C   0  0  0  0  0
    0.1880   12.7526   49.8224 C   0  0  0  0  0
    2.4615   11.6883   50.1103 C   0  0  0  0  0
    3.2804   10.4779   50.4466 C   0  0  0  0  0
    3.3738   10.1684   51.9561 C   0  0  0  0  0
    4.2524    8.9474   52.1752 C   0  0  0  0  0
    4.0346   11.3315   52.6688 C   0  0  0  0  0
    2.0078    9.9340   52.6060 C   0  0  0  0  0
    1.4709    7.8835   56.8228 C   0  0  0  0  0
    2.7360    7.4168   57.5308 C   0  0  0  0  0
    4.0263    5.5788   57.1137 C   0  0  0  0  0
    3.4408    5.3344   58.4900 C   0  0  0  0  0
    2.4132    6.4148   58.6163 C   0  0  0  0  0
    6.3464    6.3328   57.7945 C   0  0  0  0  0
    7.5561    4.8977   56.8041 C   0  0  0  0  0
    8.5587    4.1037   56.2667 C   0  0  0  0  0
    6.8610    2.7706   55.2428 C   0  0  0  0  0
    6.2629    4.6086   56.5450 C   0  0  0  0  0
   -1.5074   14.0755   42.5041 O   0  0  0  0  0
    0.6011   11.0183   47.3285 O   0  0  0  0  0
    3.0366   12.7223   49.6700 O   0  0  0  0  0
    2.8283    9.3781   49.7173 O   0  0  0  0  0
    1.3423    8.8488   52.0232 O   0  0  0  0  0
   -1.1355    7.6307   51.9831 O   0  0  0  0  0
   -0.8769   10.1741   52.4597 O   0  0  0  0  0
   -0.1194    8.5892   54.3981 O   0  0  0  0  0
    2.1158    6.9620   53.9357 O   0  0  0  0  0
   -0.3012    5.9764   54.0948 O   0  0  0  0  0
    0.7497    6.7938   56.3262 O   0  0  0  0  0
    3.6265    6.8353   56.6061 O   0  0  0  0  0
    2.8165    4.0870   58.5185 O   0  0  0  0  0
    2.2424    6.9653   59.9131 O   0  0  0  0  0
    4.4097    8.7099   59.4967 O   0  0  0  0  0
    3.3728    8.3632   62.0155 O   0  0  0  0  0
    4.6881    6.4660   60.8197 O   0  0  0  0  0
   -0.1551   15.3501   44.3558 S   0  0  0  0  0
   -0.4456   12.8862   46.3940 N   0  0  0  0  0
    1.0400   11.6598   50.2654 N   0  0  0  0  0
    5.4806    5.5001   57.1582 N   0  0  0  0  0
    7.6489    5.9846   57.5926 N   0  0  0  0  0
    9.9347    4.3824   56.5058 N   0  0  0  0  0
    8.1836    3.0428   55.4902 N   0  0  0  0  0
    5.8814    3.5615   55.7730 N   0  0  0  0  0
   -0.2073    8.8424   52.7157 P   0  0  0  0  0
    0.5869    7.0609   54.6593 P   0  0  0  0  0
    3.7097    7.5882   60.5530 P   0  0  0  0  0
  1  2  1  0  0  0
  2  3  1  0  0  0
  3  4  1  0  0  0
  4  5  1  0  0  0
  5  6  1  0  0  0
  6  7  1  0  0  0
  7  8  1  0  0  0
  8  9  1  0  0  0
  9 10  1  0  0  0
 10 11  1  0  0  0
 11 12  1  0  0  0
 12 13  1  0  0  0
 13 14  1  0  0  0
 14 53  1  0  0  0
 15 53  1  0  0  0
 15 16  1  0  0  0
 16 54  1  0  0  0
 18 17  1  0  0  0
 18 19  1  0  0  0
 19 55  1  0  0  0
 21 20  1  0  0  0
 21 39  1  0  0  0
 21 22  1  0  0  0
 22 23  1  0  0  0
 22 24  1  0  0  0
 22 25  1  0  0  0
 25 40  1  0  0  0
 26 46  1  0  0  0
 27 26  1  0  0  0
 27 47  1  0  0  0
 28 47  1  0  0  0
 28 29  1  0  0  0
 28 56  1  0  0  0
 29 48  1  0  0  0
 29 30  1  0  0  0
 30 49  1  0  0  0
 30 27  1  0  0  0
 32 57  1  0  0  0
 33 58  1  0  0  0
 33 59  1  0  0  0
 34 60  1  0  0  0
 35 56  1  0  0  0
 35 32  1  0  0  0
 54 17  1  0  0  0
 55 20  1  0  0  0
 56 31  1  0  0  0
 61 40  1  0  0  0
 61 41  1  0  0  0
 61 43  1  0  0  0
 62 43  1  0  0  0
 62 44  1  0  0  0
 62 46  1  0  0  0
 63 49  1  0  0  0
 63 50  1  0  0  0
 63 51  1  0  0  0
 14 36  2  0  0  0
 17 37  2  0  0  0
 20 38  2  0  0  0
 31 57  2  0  0  0
 32 33  2  0  0  0
 34 59  2  0  0  0
 35 60  2  0  0  0
 61 42  2  0  0  0
 62 45  2  0  0  0
 63 52  2  0  0  0
M  END
> <rmsd>
0.743543863

$$$$
MolPort-046-589-459 MolPort-047-587-201 CHEMBL1949899 PubChem-65113 PubChem-71531928


 63 65  0  0  0  0  0  0  0  0999 V2000
   -4.0724   20.4157   38.1073 C   0  0  0  0  0
   -3.8350   21.7272   37.3729 C   0  0  0  0  0
   -2.3762   22.1385   37.4617 C   0  0  0  0  0
   -1.5297   21.2864   36.5305 C   0  0  0  0  0
   -0.0811   21.7441   36.5555 C   0  0  0  0  0
    0.5996   21.3621   37.8624 C   0  0  0  0  0
    1.1351   19.9356   37.8043 C   0  0  0  0  0
    0.0484   18.9130   38.1010 C   0  0  0  0  0
   -0.3152   18.9424   39.5724 C   0  0  0  0  0
   -1.2092   17.7558   39.8933 C   0  0  0  0  0
   -1.6447   17.7812   41.3511 C   0  0  0  0  0
   -0.4712   17.5407   42.2973 C   0  0  0  0  0
    0.0196   16.0976   42.2353 C   0  0  0  0  0
   -0.8974   15.1782   42.9801 C   0  0  0  0  0
    0.3034   14.3314   45.1653 C   0  0  0  0  0
   -0.0406   12.8543   45.0660 C   0  0  0  0  0
   -0.6154   11.4635   47.0892 C   0  0  0  0  0
   -1.5825   11.1202   48.1708 C   0  0  0  0  0
   -1.0947   11.6207   49.5183 C   0  0  0  0  0
    1.2845   11.2689   50.2930 C   0  0  0  0  0
    2.3949   10.3244   50.6449 C   0  0  0  0  0
    2.2555    9.6627   52.0327 C   0  0  0  0  0
    3.4499    8.7586   52.2913 C   0  0  0  0  0
    2.2623   10.7342   53.1047 C   0  0  0  0  0
    0.9645    8.8542   52.1848 C   0  0  0  0  0
    0.2938    5.6786   55.6111 C   0  0  0  0  0
    1.4486    5.4493   56.5772 C   0  0  0  0  0
    3.3847    4.2803   56.2571 C   0  0  0  0  0
    2.6388    3.5057   57.3250 C   0  0  0  0  0
    1.2846    4.1425   57.3200 C   0  0  0  0  0
    5.0463    5.4960   57.7323 C   0  0  0  0  0
    6.8892    4.8249   56.9215 C   0  0  0  0  0
    8.2071    4.5529   56.5841 C   0  0  0  0  0
    7.3974    3.0924   54.8756 C   0  0  0  0  0
    5.8876    4.2344   56.2350 C   0  0  0  0  0
   -1.4742   14.2859   42.3814 O   0  0  0  0  0
    0.4767   10.8386   47.0050 O   0  0  0  0  0
    1.5198   12.5079   50.2366 O   0  0  0  0  0
    2.5565    9.3791   49.6320 O   0  0  0  0  0
    0.8956    7.8172   51.2466 O   0  0  0  0  0
   -0.8803    5.9565   50.2423 O   0  0  0  0  0
   -1.6932    8.2282   51.2126 O   0  0  0  0  0
   -0.8584    6.4902   52.9805 O   0  0  0  0  0
    1.8620    5.8156   52.9425 O   0  0  0  0  0
    0.0106    4.1319   52.1838 O   0  0  0  0  0
    0.1570    4.5971   54.7360 O   0  0  0  0  0
    2.6736    5.4416   55.8803 O   0  0  0  0  0
    2.5301    2.1681   56.9435 O   0  0  0  0  0
    0.6370    4.2421   58.5788 O   0  0  0  0  0
    2.0405    6.6115   59.1535 O   0  0  0  0  0
    0.6695    5.2964   61.1360 O   0  0  0  0  0
    2.8242    4.2914   60.0841 O   0  0  0  0  0
   -1.1399   15.3635   44.7499 S   0  0  0  0  0
   -0.9480   12.4749   46.1386 N   0  0  0  0  0
   -0.0218   10.7650   50.0009 N   0  0  0  0  0
    4.7155    4.6425   56.7274 N   0  0  0  0  0
    6.3949    5.6322   57.8784 N   0  0  0  0  0
    9.2916    5.1647   57.2754 N   0  0  0  0  0
    8.4343    3.6795   55.5572 N   0  0  0  0  0
    6.1031    3.3705   55.2126 N   0  0  0  0  0
   -0.6546    7.1490   51.4228 P   0  0  0  0  0
    0.2846    5.2414   53.1724 P   0  0  0  0  0
    1.5871    5.0875   59.7333 P   0  0  0  0  0
  1  2  1  0  0  0
  2  3  1  0  0  0
  3  4  1  0  0  0
  4  5  1  0  0  0
  5  6  1  0  0  0
  6  7  1  0  0  0
  7  8  1  0  0  0
  8  9  1  0  0  0
  9 10  1  0  0  0
 10 11  1  0  0  0
 11 12  1  0  0  0
 12 13  1  0  0  0
 13 14  1  0  0  0
 14 53  1  0  0  0
 15 53  1  0  0  0
 15 16  1  0  0  0
 16 54  1  0  0  0
 18 17  1  0  0  0
 18 19  1  0  0  0
 19 55  1  0  0  0
 21 20  1  0  0  0
 21 39  1  0  0  0
 21 22  1  0  0  0
 22 23  1  0  0  0
 22 24  1  0  0  0
 22 25  1  0  0  0
 25 40  1  0  0  0
 26 46  1  0  0  0
 27 26  1  0  0  0
 27 47  1  0  0  0
 28 47  1  0  0  0
 28 29  1  0  0  0
 28 56  1  0  0  0
 29 48  1  0  0  0
 29 30  1  0  0  0
 30 49  1  0  0  0
 30 27  1  0  0  0
 32 57  1  0  0  0
 33 58  1  0  0  0
 33 59  1  0  0  0
 34 60  1  0  0  0
 35 56  1  0  0  0
 35 32  1  0  0  0
 54 17  1  0  0  0
 55 20  1  0  0  0
 56 31  1  0  0  0
 61 40  1  0  0  0
 61 41  1  0  0  0
 61 43  1  0  0  0
 62 43  1  0  0  0
 62 44  1  0  0  0
 62 46  1  0  0  0
 63 49  1  0  0  0
 63 50  1  0  0  0
 63 51  1  0  0  0
 14 36  2  0  0  0
 17 37  2  0  0  0
 20 38  2  0  0  0
 31 57  2  0  0  0
 32 33  2  0  0  0
 34 59  2  0  0  0
 35 60  2  0  0  0
 61 42  2  0  0  0
 62 45  2  0  0  0
 63 52  2  0  0  0
M  END
> <rmsd>
0.812182963

$$$$
MolPort-047-950-317


 83 92  0  0  0  0  0  0  0  0999 V2000
    7.7670    4.2556   54.9991 C   0  0  0  0  0
    6.6171    3.5942   55.7399 C   0  0  0  0  0
    4.4048    2.8840   55.5083 C   0  0  0  0  0
    3.5340    2.0544   53.5710 C   0  0  0  0  0
    3.6268    0.8793   52.5968 C   0  0  0  0  0
    2.7543   -0.3006   53.0511 C   0  0  0  0  0
    1.3609    0.2044   53.4427 C   0  0  0  0  0
    2.0349    2.3135   53.7985 C   0  0  0  0  0
    0.8996    4.2608   53.8357 C   0  0  0  0  0
    1.5064    4.8629   52.5498 C   0  0  0  0  0
    2.0599    6.2611   52.7687 C   0  0  0  0  0
    0.9938    7.2691   53.2403 C   0  0  0  0  0
    1.6772    8.1723   54.2543 C   0  0  0  0  0
   -0.2125    6.5671   53.9604 C   0  0  0  0  0
   -1.3639    6.1991   53.0115 C   0  0  0  0  0
   -1.7834    7.3659   52.1423 C   0  0  0  0  0
   -0.6484    7.8024   51.2191 C   0  0  0  0  0
   -0.2676    6.6361   50.3049 C   0  0  0  0  0
    0.5590    8.2142   52.0855 C   0  0  0  0  0
    1.7337    8.8070   51.2869 C   0  0  0  0  0
    1.3412    9.4600   49.9861 C   0  0  0  0  0
    0.0839    9.5232   49.5108 C   0  0  0  0  0
   -0.1843   10.1417   48.1489 C   0  0  0  0  0
    1.0691   10.4789   47.3113 C   0  0  0  0  0
    1.6102    9.2968   46.4889 C   0  0  0  0  0
    2.7259    8.6105   47.2497 C   0  0  0  0  0
    2.1920    9.8570   45.2024 C   0  0  0  0  0
    0.5402    8.2526   46.1428 C   0  0  0  0  0
   -0.8326    8.9038   45.9942 C   0  0  0  0  0
   -1.3351    9.4794   47.3261 C   0  0  0  0  0
   -1.9846    8.3186   48.0991 C   0  0  0  0  0
   -2.3310    8.7251   49.5244 C   0  0  0  0  0
   -1.0827    9.0398   50.3682 C   0  0  0  0  0
   -1.4746   10.2013   51.2747 C   0  0  0  0  0
   -2.3588   10.5348   46.9777 C   0  0  0  0  0
   -2.6663   12.8358   46.1463 C   0  0  0  0  0
   -2.7821   15.0793   45.6807 C   0  0  0  0  0
   -3.0406   16.4519   46.2991 C   0  0  0  0  0
   -5.2304   16.8068   46.2250 C   0  0  0  0  0
   -7.3169   16.2296   45.4423 C   0  0  0  0  0
   -6.8509   15.6729   44.0967 C   0  0  0  0  0
   -7.7942   17.6880   45.3642 C   0  0  0  0  0
   -6.6328   18.6952   45.3777 C   0  0  0  0  0
   -5.5523   18.3003   46.3849 C   0  0  0  0  0
   -1.7322   15.1309   44.5587 C   0  0  0  0  0
   -1.2301   13.7202   44.2400 C   0  0  0  0  0
   -2.2251   12.6286   44.6764 C   0  0  0  0  0
    0.2326    5.3096   54.7640 C   0  0  0  0  0
   -0.9652    4.6552   55.4333 C   0  0  0  0  0
    1.1783    5.7337   55.8884 C   0  0  0  0  0
    4.4901    2.5704   57.0199 C   0  0  0  0  0
    5.1459    3.7159   57.7989 C   0  0  0  0  0
    3.7703    4.5022   59.3565 C   0  0  0  0  0
    1.5930    4.1459   58.7156 C   0  0  0  0  0
    1.0379    5.3178   59.5156 C   0  0  0  0  0
    2.1045    6.4059   59.6030 C   0  0  0  0  0
    3.4268    5.8030   60.0973 C   0  0  0  0  0
    6.3884    4.2790   57.0954 C   0  0  0  0  0
    5.4468    3.6865   54.9628 O   0  0  0  0  0
    4.2081    1.7143   54.7623 O   0  0  0  0  0
    4.9523    0.4754   52.4189 O   0  0  0  0  0
    3.3353   -0.9507   54.1389 O   0  0  0  0  0
    1.4440    1.2065   54.4275 O   0  0  0  0  0
    1.8371    3.4827   54.5387 O   0  0  0  0  0
   -3.5261   10.1989   46.6429 O   0  0  0  0  0
   -1.9915   11.8841   46.9570 O   0  0  0  0  0
   -2.3919   14.1369   46.6526 O   0  0  0  0  0
   -4.1968   16.4254   47.0870 O   0  0  0  0  0
   -6.3721   16.0187   46.4775 O   0  0  0  0  0
   -7.9376   15.5702   43.2246 O   0  0  0  0  0
   -8.6546   17.9527   46.4338 O   0  0  0  0  0
   -6.0771   18.7963   44.0965 O   0  0  0  0  0
   -5.9852   18.5740   47.6868 O   0  0  0  0  0
   -0.6429   15.9192   44.9305 O   0  0  0  0  0
   -0.9427   13.6054   42.8775 O   0  0  0  0  0
   -3.3528   12.6375   43.8514 O   0  0  0  0  0
    5.1980    1.3905   57.2424 O   0  0  0  0  0
    4.2130    4.7306   58.0399 O   0  0  0  0  0
    2.6930    3.5835   59.3924 O   0  0  0  0  0
   -0.0962    5.8223   58.8849 O   0  0  0  0  0
    1.6823    7.3882   60.4991 O   0  0  0  0  0
    4.4610    6.7303   59.9593 O   0  0  0  0  0
    7.4973    4.0990   57.9181 O   0  0  0  0  0
  1  2  1  0  0  0
  2 59  1  0  0  0
  3 59  1  0  0  0
  3 60  1  0  0  0
  3 51  1  0  0  0
  4 60  1  0  0  0
  4  5  1  0  0  0
  5 61  1  0  0  0
  5  6  1  0  0  0
  6 62  1  0  0  0
  6  7  1  0  0  0
  7 63  1  0  0  0
  8 63  1  0  0  0
  8 64  1  0  0  0
  8  4  1  0  0  0
  9 64  1  0  0  0
  9 10  1  0  0  0
 10 11  1  0  0  0
 11 12  1  0  0  0
 12 13  1  0  0  0
 12 14  1  0  0  0
 14 15  1  0  0  0
 14 48  1  0  0  0
 15 16  1  0  0  0
 16 17  1  0  0  0
 17 18  1  0  0  0
 17 19  1  0  0  0
 19 20  1  0  0  0
 19 12  1  0  0  0
 20 21  1  0  0  0
 23 22  1  0  0  0
 23 24  1  0  0  0
 24 25  1  0  0  0
 25 26  1  0  0  0
 25 27  1  0  0  0
 25 28  1  0  0  0
 28 29  1  0  0  0
 29 30  1  0  0  0
 30 31  1  0  0  0
 30 35  1  0  0  0
 30 23  1  0  0  0
 31 32  1  0  0  0
 32 33  1  0  0  0
 33 34  1  0  0  0
 33 22  1  0  0  0
 33 17  1  0  0  0
 35 66  1  0  0  0
 36 66  1  0  0  0
 36 67  1  0  0  0
 37 67  1  0  0  0
 37 38  1  0  0  0
 37 45  1  0  0  0
 38 68  1  0  0  0
 39 68  1  0  0  0
 39 69  1  0  0  0
 40 69  1  0  0  0
 40 41  1  0  0  0
 40 42  1  0  0  0
 41 70  1  0  0  0
 42 71  1  0  0  0
 42 43  1  0  0  0
 43 72  1  0  0  0
 43 44  1  0  0  0
 44 73  1  0  0  0
 44 39  1  0  0  0
 45 74  1  0  0  0
 45 46  1  0  0  0
 46 75  1  0  0  0
 46 47  1  0  0  0
 47 76  1  0  0  0
 47 36  1  0  0  0
 48 49  1  0  0  0
 48 50  1  0  0  0
 48  9  1  0  0  0
 51 77  1  0  0  0
 51 52  1  0  0  0
 52 78  1  0  0  0
 52 58  1  0  0  0
 53 78  1  0  0  0
 53 79  1  0  0  0
 54 79  1  0  0  0
 54 55  1  0  0  0
 55 80  1  0  0  0
 55 56  1  0  0  0
 56 81  1  0  0  0
 56 57  1  0  0  0
 57 82  1  0  0  0
 57 53  1  0  0  0
 58 83  1  0  0  0
 58  2  1  0  0  0
 21 22  2  0  0  0
 35 65  2  0  0  0
M  END
> <rmsd>
0.579895258

$$$$
MolPort-047-950-317


 83 92  0  0  0  0  0  0  0  0999 V2000
    7.9855    3.9961   55.2718 C   0  0  0  0  0
    6.7074    3.4344   55.8713 C   0  0  0  0  0
    4.4771    2.9369   55.3911 C   0  0  0  0  0
    3.7467    2.2195   53.3535 C   0  0  0  0  0
    3.8358    1.0547   52.3667 C   0  0  0  0  0
    2.8156   -0.0450   52.6982 C   0  0  0  0  0
    1.4403    0.5822   52.9528 C   0  0  0  0  0
    2.2619    2.6141   53.4279 C   0  0  0  0  0
    1.3115    4.6579   53.3920 C   0  0  0  0  0
    2.1049    5.2189   52.1919 C   0  0  0  0  0
    2.7570    6.5562   52.5013 C   0  0  0  0  0
    1.7429    7.6525   52.8820 C   0  0  0  0  0
    2.3933    8.4737   53.9836 C   0  0  0  0  0
    0.4075    7.0560   53.4540 C   0  0  0  0  0
   -0.6645    6.8103   52.3805 C   0  0  0  0  0
   -0.8803    8.0233   51.5001 C   0  0  0  0  0
    0.3821    8.3650   50.7124 C   0  0  0  0  0
    0.7507    7.1813   49.8157 C   0  0  0  0  0
    1.5223    8.6502   51.7107 C   0  0  0  0  0
    2.8249    9.1421   51.0548 C   0  0  0  0  0
    2.6352    9.8470   49.7359 C   0  0  0  0  0
    1.4470   10.0339   49.1324 C   0  0  0  0  0
    1.3838   10.6939   47.7650 C   0  0  0  0  0
    2.7452   10.9245   47.0724 C   0  0  0  0  0
    3.2611    9.7087   46.2836 C   0  0  0  0  0
    4.2217    8.9108   47.1410 C   0  0  0  0  0
    4.0261   10.2304   45.0793 C   0  0  0  0  0
    2.1436    8.7739   45.8018 C   0  0  0  0  0
    0.8597    9.5523   45.5250 C   0  0  0  0  0
    0.2721   10.1534   46.8099 C   0  0  0  0  0
   -0.5596    9.0475   47.4822 C   0  0  0  0  0
   -1.0181    9.4643   48.8724 C   0  0  0  0  0
    0.1561    9.6493   49.8503 C   0  0  0  0  0
   -0.2230   10.8295   50.7380 C   0  0  0  0  0
   -0.6077   11.3045   46.3810 C   0  0  0  0  0
   -0.6133   13.6356   45.5772 C   0  0  0  0  0
   -0.4734   15.8865   45.1558 C   0  0  0  0  0
   -0.6704   17.2684   45.7762 C   0  0  0  0  0
   -2.7982   17.8268   45.4803 C   0  0  0  0  0
   -4.8327   17.4578   44.4686 C   0  0  0  0  0
   -4.2780   16.8792   43.1667 C   0  0  0  0  0
   -5.1639   18.9553   44.3756 C   0  0  0  0  0
   -3.9236   19.8496   44.5355 C   0  0  0  0  0
   -2.9977   19.3414   45.6411 C   0  0  0  0  0
    0.6909   15.8557   44.1522 C   0  0  0  0  0
    1.0934   14.4090   43.8545 C   0  0  0  0  0
   -0.0380   13.4088   44.1574 C   0  0  0  0  0
    0.6473    5.7512   54.2697 C   0  0  0  0  0
   -0.6699    5.2020   54.7932 C   0  0  0  0  0
    1.5019    6.0694   55.4972 C   0  0  0  0  0
    4.3711    2.5955   56.8953 C   0  0  0  0  0
    5.0414    3.6637   57.7662 C   0  0  0  0  0
    3.5844    4.5528   59.1886 C   0  0  0  0  0
    1.4648    4.4102   58.3136 C   0  0  0  0  0
    0.9365    5.6174   59.0785 C   0  0  0  0  0
    2.0824    6.5999   59.3038 C   0  0  0  0  0
    3.2836    5.8694   59.9200 C   0  0  0  0  0
    6.3982    4.1184   57.2111 C   0  0  0  0  0
    5.6404    3.6464   54.9776 O   0  0  0  0  0
    4.2555    1.8013   54.6007 O   0  0  0  0  0
    5.1303    0.5315   52.3198 O   0  0  0  0  0
    3.2151   -0.7617   53.8252 O   0  0  0  0  0
    1.5084    1.5582   53.9646 O   0  0  0  0  0
    2.0934    3.7860   54.1710 O   0  0  0  0  0
   -1.7583   11.0837   45.9172 O   0  0  0  0  0
   -0.1188   12.6138   46.4314 O   0  0  0  0  0
   -0.2771   14.8982   46.1405 O   0  0  0  0  0
   -1.9019   17.3387   46.4370 O   0  0  0  0  0
   -4.0274   17.1452   45.5923 O   0  0  0  0  0
   -5.2698   16.8905   42.1827 O   0  0  0  0  0
   -6.1061   19.2840   45.3546 O   0  0  0  0  0
   -3.2270   19.9165   43.3227 O   0  0  0  0  0
   -3.5408   19.6359   46.8964 O   0  0  0  0  0
    1.8014   16.5337   44.6554 O   0  0  0  0  0
    1.5135   14.2871   42.5275 O   0  0  0  0  0
   -1.0653   13.5345   43.2186 O   0  0  0  0  0
    4.9404    1.3516   57.1628 O   0  0  0  0  0
    4.1845    4.7575   57.9318 O   0  0  0  0  0
    2.4302    3.7382   59.0889 O   0  0  0  0  0
   -0.0727    6.2343   58.3441 O   0  0  0  0  0
    1.6580    7.6046   60.1737 O   0  0  0  0  0
    4.4068    6.6981   59.9139 O   0  0  0  0  0
    7.3916    3.8242   58.1415 O   0  0  0  0  0
  1  2  1  0  0  0
  2 59  1  0  0  0
  3 59  1  0  0  0
  3 60  1  0  0  0
  3 51  1  0  0  0
  4 60  1  0  0  0
  4  5  1  0  0  0
  5 61  1  0  0  0
  5  6  1  0  0  0
  6 62  1  0  0  0
  6  7  1  0  0  0
  7 63  1  0  0  0
  8 63  1  0  0  0
  8 64  1  0  0  0
  8  4  1  0  0  0
  9 64  1  0  0  0
  9 10  1  0  0  0
 10 11  1  0  0  0
 11 12  1  0  0  0
 12 13  1  0  0  0
 12 14  1  0  0  0
 14 15  1  0  0  0
 14 48  1  0  0  0
 15 16  1  0  0  0
 16 17  1  0  0  0
 17 18  1  0  0  0
 17 19  1  0  0  0
 19 20  1  0  0  0
 19 12  1  0  0  0
 20 21  1  0  0  0
 23 22  1  0  0  0
 23 24  1  0  0  0
 24 25  1  0  0  0
 25 26  1  0  0  0
 25 27  1  0  0  0
 25 28  1  0  0  0
 28 29  1  0  0  0
 29 30  1  0  0  0
 30 31  1  0  0  0
 30 35  1  0  0  0
 30 23  1  0  0  0
 31 32  1  0  0  0
 32 33  1  0  0  0
 33 34  1  0  0  0
 33 22  1  0  0  0
 33 17  1  0  0  0
 35 66  1  0  0  0
 36 66  1  0  0  0
 36 67  1  0  0  0
 37 67  1  0  0  0
 37 38  1  0  0  0
 37 45  1  0  0  0
 38 68  1  0  0  0
 39 68  1  0  0  0
 39 69  1  0  0  0
 40 69  1  0  0  0
 40 41  1  0  0  0
 40 42  1  0  0  0
 41 70  1  0  0  0
 42 71  1  0  0  0
 42 43  1  0  0  0
 43 72  1  0  0  0
 43 44  1  0  0  0
 44 73  1  0  0  0
 44 39  1  0  0  0
 45 74  1  0  0  0
 45 46  1  0  0  0
 46 75  1  0  0  0
 46 47  1  0  0  0
 47 76  1  0  0  0
 47 36  1  0  0  0
 48 49  1  0  0  0
 48 50  1  0  0  0
 48  9  1  0  0  0
 51 77  1  0  0  0
 51 52  1  0  0  0
 52 78  1  0  0  0
 52 58  1  0  0  0
 53 78  1  0  0  0
 53 79  1  0  0  0
 54 79  1  0  0  0
 54 55  1  0  0  0
 55 80  1  0  0  0
 55 56  1  0  0  0
 56 81  1  0  0  0
 56 57  1  0  0  0
 57 82  1  0  0  0
 57 53  1  0  0  0
 58 83  1  0  0  0
 58  2  1  0  0  0
 21 22  2  0  0  0
 35 65  2  0  0  0
M  END
> <rmsd>
0.485062361

$$$$
MolPort-047-950-317


 83 92  0  0  0  0  0  0  0  0999 V2000
    7.8802    4.1523   55.0734 C   0  0  0  0  0
    6.7563    3.5227   55.8789 C   0  0  0  0  0
    4.6064    2.6277   55.7077 C   0  0  0  0  0
    3.8553    1.4667   53.8946 C   0  0  0  0  0
    4.0590    0.1734   53.1043 C   0  0  0  0  0
    3.2561   -0.9890   53.7077 C   0  0  0  0  0
    1.8198   -0.5354   53.9926 C   0  0  0  0  0
    2.3356    1.6463   54.0508 C   0  0  0  0  0
    1.0682    3.4909   53.7802 C   0  0  0  0  0
    1.6716    3.9440   52.4330 C   0  0  0  0  0
    2.1204    5.3957   52.4571 C   0  0  0  0  0
    0.9733    6.3810   52.7545 C   0  0  0  0  0
    1.5611    7.4680   53.6398 C   0  0  0  0  0
   -0.2034    5.7042   53.5442 C   0  0  0  0  0
   -1.2969    5.1207   52.6355 C   0  0  0  0  0
   -1.7686    6.1166   51.5970 C   0  0  0  0  0
   -0.6384    6.4968   50.6437 C   0  0  0  0  0
   -0.1500    5.2419   49.9173 C   0  0  0  0  0
    0.5104    7.1158   51.4655 C   0  0  0  0  0
    1.6656    7.6712   50.6134 C   0  0  0  0  0
    1.2696    8.0998   49.2235 C   0  0  0  0  0
    0.0262    8.0023   48.7182 C   0  0  0  0  0
   -0.2417    8.3972   47.2753 C   0  0  0  0  0
    1.0109    8.7004   46.4236 C   0  0  0  0  0
    1.6573    7.4546   45.7938 C   0  0  0  0  0
    2.7936    6.9680   46.6694 C   0  0  0  0  0
    2.2388    7.8646   44.4516 C   0  0  0  0  0
    0.6731    6.2966   45.5816 C   0  0  0  0  0
   -0.7361    6.8181   45.3113 C   0  0  0  0  0
   -1.3181    7.5414   46.5344 C   0  0  0  0  0
   -1.9097    6.4600   47.4548 C   0  0  0  0  0
   -2.3272    7.0412   48.7981 C   0  0  0  0  0
   -1.1303    7.5640   49.6126 C   0  0  0  0  0
   -1.6292    8.8124   50.3317 C   0  0  0  0  0
   -2.4007    8.4585   46.0147 C   0  0  0  0  0
   -2.8402   10.5873   44.8505 C   0  0  0  0  0
   -3.0957   12.7260   44.0604 C   0  0  0  0  0
   -3.4672   14.1509   44.4665 C   0  0  0  0  0
   -5.6729   14.3313   44.2962 C   0  0  0  0  0
   -7.6894   13.4973   43.5631 C   0  0  0  0  0
   -7.1448   12.7881   42.3231 C   0  0  0  0  0
   -8.2635   14.8907   43.2634 C   0  0  0  0  0
   -7.1752   15.9711   43.1538 C   0  0  0  0  0
   -6.1017   15.8048   44.2299 C   0  0  0  0  0
   -2.0177   12.6915   42.9648 C   0  0  0  0  0
   -1.4099   11.2899   42.8656 C   0  0  0  0  0
   -2.3404   10.2031   43.4360 C   0  0  0  0  0
    0.3021    4.6112   54.5316 C   0  0  0  0  0
   -0.8680    3.9747   55.2644 C   0  0  0  0  0
    1.1811    5.2603   55.6014 C   0  0  0  0  0
    4.6663    2.5421   57.2503 C   0  0  0  0  0
    5.2172    3.8324   57.8673 C   0  0  0  0  0
    3.7431    4.7327   59.2649 C   0  0  0  0  0
    1.6163    4.1306   58.6379 C   0  0  0  0  0
    0.9574    5.3620   59.2468 C   0  0  0  0  0
    1.9433    6.5259   59.1966 C   0  0  0  0  0
    3.2880    6.0982   59.8008 C   0  0  0  0  0
    6.4391    4.3771   57.1150 C   0  0  0  0  0
    5.6071    3.4169   55.0726 O   0  0  0  0  0
    4.5140    1.3516   55.1364 O   0  0  0  0  0
    5.4140   -0.1544   53.0146 O   0  0  0  0  0
    3.8466   -1.4318   54.8904 O   0  0  0  0  0
    1.8031    0.6014   54.8223 O   0  0  0  0  0
    2.0349    2.8924   54.6083 O   0  0  0  0  0
   -3.5312    7.9940   45.7084 O   0  0  0  0  0
   -2.1268    9.8138   45.8050 O   0  0  0  0  0
   -2.6718   11.9642   45.1671 O   0  0  0  0  0
   -4.6427   14.1542   45.2258 O   0  0  0  0  0
   -6.7649   13.5070   44.6374 O   0  0  0  0  0
   -8.1942   12.4822   41.4530 O   0  0  0  0  0
   -9.1727   15.2435   44.2649 O   0  0  0  0  0
   -6.5884   15.9268   41.8833 O   0  0  0  0  0
   -6.5926   16.2310   45.4688 O   0  0  0  0  0
   -0.9973   13.6023   43.2400 O   0  0  0  0  0
   -1.0732   11.0014   41.5407 O   0  0  0  0  0
   -3.4399   10.0112   42.5954 O   0  0  0  0  0
    5.4465    1.4610   57.6571 O   0  0  0  0  0
    4.2096    4.8007   57.9384 O   0  0  0  0  0
    2.7311    3.7529   59.4121 O   0  0  0  0  0
   -0.1887    5.6867   58.5261 O   0  0  0  0  0
    1.4268    7.5938   59.9310 O   0  0  0  0  0
    4.2596    7.0686   59.5504 O   0  0  0  0  0
    7.5318    4.3985   57.9778 O   0  0  0  0  0
  1  2  1  0  0  0
  2 59  1  0  0  0
  3 59  1  0  0  0
  3 60  1  0  0  0
  3 51  1  0  0  0
  4 60  1  0  0  0
  4  5  1  0  0  0
  5 61  1  0  0  0
  5  6  1  0  0  0
  6 62  1  0  0  0
  6  7  1  0  0  0
  7 63  1  0  0  0
  8 63  1  0  0  0
  8 64  1  0  0  0
  8  4  1  0  0  0
  9 64  1  0  0  0
  9 10  1  0  0  0
 10 11  1  0  0  0
 11 12  1  0  0  0
 12 13  1  0  0  0
 12 14  1  0  0  0
 14 15  1  0  0  0
 14 48  1  0  0  0
 15 16  1  0  0  0
 16 17  1  0  0  0
 17 18  1  0  0  0
 17 19  1  0  0  0
 19 20  1  0  0  0
 19 12  1  0  0  0
 20 21  1  0  0  0
 23 22  1  0  0  0
 23 24  1  0  0  0
 24 25  1  0  0  0
 25 26  1  0  0  0
 25 27  1  0  0  0
 25 28  1  0  0  0
 28 29  1  0  0  0
 29 30  1  0  0  0
 30 31  1  0  0  0
 30 35  1  0  0  0
 30 23  1  0  0  0
 31 32  1  0  0  0
 32 33  1  0  0  0
 33 34  1  0  0  0
 33 22  1  0  0  0
 33 17  1  0  0  0
 35 66  1  0  0  0
 36 66  1  0  0  0
 36 67  1  0  0  0
 37 67  1  0  0  0
 37 38  1  0  0  0
 37 45  1  0  0  0
 38 68  1  0  0  0
 39 68  1  0  0  0
 39 69  1  0  0  0
 40 69  1  0  0  0
 40 41  1  0  0  0
 40 42  1  0  0  0
 41 70  1  0  0  0
 42 71  1  0  0  0
 42 43  1  0  0  0
 43 72  1  0  0  0
 43 44  1  0  0  0
 44 73  1  0  0  0
 44 39  1  0  0  0
 45 74  1  0  0  0
 45 46  1  0  0  0
 46 75  1  0  0  0
 46 47  1  0  0  0
 47 76  1  0  0  0
 47 36  1  0  0  0
 48 49  1  0  0  0
 48 50  1  0  0  0
 48  9  1  0  0  0
 51 77  1  0  0  0
 51 52  1  0  0  0
 52 78  1  0  0  0
 52 58  1  0  0  0
 53 78  1  0  0  0
 53 79  1  0  0  0
 54 79  1  0  0  0
 54 55  1  0  0  0
 55 80  1  0  0  0
 55 56  1  0  0  0
 56 81  1  0  0  0
 56 57  1  0  0  0
 57 82  1  0  0  0
 57 53  1  0  0  0
 58 83  1  0  0  0
 58  2  1  0  0  0
 21 22  2  0  0  0
 35 65  2  0  0  0
M  END
> <rmsd>
0.516275704

$$$$
MolPort-006-536-967 ChemDiv-V009-1973 MCULE-5656301194 PubChem-46002762 ZINC000103119093


 43 47  0  0  0  0  0  0  0  0999 V2000
   -2.5811   14.5314   43.1233 C   0  0  0  0  0
   -0.8095   12.9317   43.7730 C   0  0  0  0  0
   -1.4784   12.5610   44.9450 C   0  0  0  0  0
   -0.9213   11.6102   45.7995 C   0  0  0  0  0
    0.3137   11.0047   45.5090 C   0  0  0  0  0
    0.9927   11.3812   44.3229 C   0  0  0  0  0
    2.9605   11.1528   42.8304 C   0  0  0  0  0
    0.4178   12.3409   43.4717 C   0  0  0  0  0
    0.8589    9.9946   46.4593 C   0  0  0  0  0
    0.1940    9.7126   47.6585 C   0  0  0  0  0
    0.7182    8.7653   48.5322 C   0  0  0  0  0
    1.9041    8.1051   48.1987 C   0  0  0  0  0
    3.7056    6.4230   48.6774 C   0  0  0  0  0
    4.1131    5.3796   49.7150 C   0  0  0  0  0
    2.8488    6.7069   51.4683 C   0  0  0  0  0
    1.8185    6.7799   50.3414 C   0  0  0  0  0
    5.1769    5.8642   51.9316 C   0  0  0  0  0
    5.1294    6.4239   53.3188 C   0  0  0  0  0
    3.3424    5.1227   54.4951 C   0  0  0  0  0
    2.9275    5.6069   55.8435 C   0  0  0  0  0
    2.7260    6.9881   56.0651 C   0  0  0  0  0
    2.3481    7.4604   57.3352 C   0  0  0  0  0
    2.1861    6.5190   58.3482 C   0  0  0  0  0
    1.7899    5.4533   60.3225 C   0  0  0  0  0
    2.3812    5.1922   58.1378 C   0  0  0  0  0
    2.7555    4.6872   56.8953 C   0  0  0  0  0
    5.7697    4.5491   54.8609 C   0  0  0  0  0
    8.2723    4.0505   55.1585 C   0  0  0  0  0
    8.2055    2.6285   54.6311 C   0  0  0  0  0
    9.5708    4.6773   54.6976 C   0  0  0  0  0
    8.2506    4.0372   56.6762 C   0  0  0  0  0
   -1.3388   13.8804   42.8937 O   0  0  0  0  0
    2.2286   10.8075   43.9987 O   0  0  0  0  0
    6.2227    5.2724   51.5512 O   0  0  0  0  0
    1.8241    6.7274   59.6641 O   0  0  0  0  0
    2.1520    4.5023   59.3112 O   0  0  0  0  0
    5.4363    3.5590   55.5681 O   0  0  0  0  0
    2.5142    8.4121   47.0212 N   0  0  0  0  0
    2.0100    9.3213   46.1846 N   0  0  0  0  0
    2.4782    7.1225   49.0778 N   0  0  0  0  0
    4.0449    5.9644   51.0539 N   0  0  0  0  0
    4.7603    5.3845   54.2715 N   0  0  0  0  0
    7.1577    4.8392   54.6395 N   0  0  0  0  0
  1 32  1  0  0  0
  2 32  1  0  0  0
  3  4  1  0  0  0
  5  6  1  0  0  0
  5  9  1  0  0  0
  6 33  1  0  0  0
  7 33  1  0  0  0
  8  2  1  0  0  0
  9 39  1  0  0  0
 10 11  1  0  0  0
 12 38  1  0  0  0
 12 40  1  0  0  0
 13 40  1  0  0  0
 13 14  1  0  0  0
 14 41  1  0  0  0
 15 41  1  0  0  0
 15 16  1  0  0  0
 16 40  1  0  0  0
 18 17  1  0  0  0
 18 42  1  0  0  0
 19 42  1  0  0  0
 19 20  1  0  0  0
 21 22  1  0  0  0
 23 35  1  0  0  0
 24 35  1  0  0  0
 24 36  1  0  0  0
 25 36  1  0  0  0
 25 23  1  0  0  0
 26 20  1  0  0  0
 27 43  1  0  0  0
 28 43  1  0  0  0
 28 29  1  0  0  0
 28 30  1  0  0  0
 28 31  1  0  0  0
 41 17  1  0  0  0
 42 27  1  0  0  0
  2  3  2  0  0  0
  4  5  2  0  0  0
  6  8  2  0  0  0
  9 10  2  0  0  0
 11 12  2  0  0  0
 17 34  2  0  0  0
 20 21  2  0  0  0
 22 23  2  0  0  0
 25 26  2  0  0  0
 27 37  2  0  0  0
 38 39  2  0  0  0
M  END
> <rmsd>
0.610599756

$$$$
MolPort-002-964-490 MCULE-4585065109 PubChem-16468054


 76 83  0  0  0  0  0  0  0  0999 V2000
    3.3225   12.3593   43.4578 C   0  0  0  0  0
    2.4243   13.5786   43.5785 C   0  0  0  0  0
    1.0534   13.3205   42.9391 C   0  0  0  0  0
   -0.0041   14.1945   43.5975 C   0  0  0  0  0
   -0.0401   13.9550   45.1040 C   0  0  0  0  0
    1.3225   13.5233   45.6628 C   0  0  0  0  0
    1.5855   11.8303   47.0908 C   0  0  0  0  0
    2.7107   10.8034   47.2516 C   0  0  0  0  0
    2.2906    9.4440   46.6507 C   0  0  0  0  0
    0.2094    9.7604   47.6079 C   0  0  0  0  0
    0.2738   11.2910   47.6748 C   0  0  0  0  0
   -1.2355    9.3092   47.5682 C   0  0  0  0  0
    2.5586    7.9970   48.6482 C   0  0  0  0  0
    3.1724    8.6724   49.7031 C   0  0  0  0  0
    2.8739    8.3424   51.0239 C   0  0  0  0  0
    3.5371    9.0088   52.0504 C   0  0  0  0  0
    3.2815    8.6890   53.3808 C   0  0  0  0  0
    2.3187    7.7172   53.7085 C   0  0  0  0  0
    2.0704    7.4086   55.1422 C   0  0  0  0  0
    3.0257    7.8528   56.2190 C   0  0  0  0  0
    4.2999    8.5358   55.6688 C   0  0  0  0  0
    4.0267    9.4247   54.4510 C   0  0  0  0  0
    5.5435    7.6317   55.5449 C   0  0  0  0  0
    5.4083    6.4990   54.5714 C   0  0  0  0  0
    5.1756    5.1117   55.0920 C   0  0  0  0  0
    6.3498    4.1848   54.7801 C   0  0  0  0  0
    7.5845    4.6114   55.5524 C   0  0  0  0  0
    7.4380    8.3178   56.4563 C   0  0  0  0  0
    3.5198    7.2523   58.3365 C   0  0  0  0  0
    4.5474    6.3981   59.0826 C   0  0  0  0  0
    3.9622    5.0069   59.3299 C   0  0  0  0  0
    2.5623    5.0719   59.9464 C   0  0  0  0  0
    1.7089    6.0389   59.1160 C   0  0  0  0  0
    0.3202    6.1608   59.7136 C   0  0  0  0  0
    5.0615    4.5900   61.3153 C   0  0  0  0  0
    4.6403    3.5321   62.3349 C   0  0  0  0  0
    5.5410    2.3150   62.1963 C   0  0  0  0  0
    7.0164    2.7246   62.2498 C   0  0  0  0  0
    7.3419    3.9677   61.3981 C   0  0  0  0  0
    7.6567    3.6112   59.9540 C   0  0  0  0  0
    7.0810    3.8353   64.2789 C   0  0  0  0  0
    8.2191    4.6357   64.9209 C   0  0  0  0  0
    8.9070    3.7939   65.9902 C   0  0  0  0  0
    7.8841    3.1894   66.9517 C   0  0  0  0  0
    6.7718    2.5044   66.1388 C   0  0  0  0  0
    5.7183    1.9152   67.0588 C   0  0  0  0  0
    8.5081    2.8190   69.0511 C   0  0  0  0  0
    1.6512    7.0238   52.6715 C   0  0  0  0  0
    1.9306    7.3271   51.3165 C   0  0  0  0  0
    1.3153    6.6376   50.2412 C   0  0  0  0  0
    1.6451    6.9671   48.9151 C   0  0  0  0  0
    1.0178    6.2206   47.7845 C   0  0  0  0  0
    2.3944   14.0657   44.9155 O   0  0  0  0  0
    1.4057   12.1254   45.7342 O   0  0  0  0  0
    0.8907    9.2730   46.4738 O   0  0  0  0  0
    0.1427   11.7095   48.9981 O   0  0  0  0  0
    2.8780    8.3331   47.3293 O   0  0  0  0  0
    1.0264    6.7936   55.4914 O   0  0  0  0  0
    5.5201    6.6969   53.3688 O   0  0  0  0  0
    6.0326    2.8730   55.1323 O   0  0  0  0  0
    3.9958    4.6029   54.5429 O   0  0  0  0  0
    6.6909    8.3846   55.2810 O   0  0  0  0  0
    3.3340    6.7567   57.0364 O   0  0  0  0  0
    2.2998    7.3200   59.0545 O   0  0  0  0  0
    1.9893    3.7981   59.9313 O   0  0  0  0  0
    4.8501    4.1350   59.9966 O   0  0  0  0  0
    6.3989    5.0264   61.5115 O   0  0  0  0  0
    7.5865    2.7392   63.5455 O   0  0  0  0  0
    6.1488    3.4219   65.2603 O   0  0  0  0  0
    8.5184    2.2506   67.7766 O   0  0  0  0  0
    9.8147    4.5841   66.6954 O   0  0  0  0  0
    5.2442    1.3700   63.1804 O   0  0  0  0  0
    0.3847    5.6269   50.4726 O   0  0  0  0  0
    0.7381    6.0210   52.9944 O   0  0  0  0  0
   -1.2608   13.9154   43.0573 O   0  0  0  0  0
    1.1191   13.5933   41.5710 O   0  0  0  0  0
  2  1  1  0  0  0
  2  3  1  0  0  0
  2 53  1  0  0  0
  3  4  1  0  0  0
  3 76  1  0  0  0
  4  5  1  0  0  0
  4 75  1  0  0  0
  5  6  1  0  0  0
  6 53  1  0  0  0
  6 54  1  0  0  0
  7 54  1  0  0  0
  7  8  1  0  0  0
  8  9  1  0  0  0
  9 55  1  0  0  0
  9 57  1  0  0  0
 10 55  1  0  0  0
 10 11  1  0  0  0
 10 12  1  0  0  0
 11 56  1  0  0  0
 11  7  1  0  0  0
 13 57  1  0  0  0
 14 15  1  0  0  0
 16 17  1  0  0  0
 18 19  1  0  0  0
 18 48  1  0  0  0
 20 19  1  0  0  0
 20 21  1  0  0  0
 20 63  1  0  0  0
 21 22  1  0  0  0
 21 23  1  0  0  0
 22 17  1  0  0  0
 23 24  1  0  0  0
 23 62  1  0  0  0
 25 24  1  0  0  0
 25 26  1  0  0  0
 25 61  1  0  0  0
 26 27  1  0  0  0
 26 60  1  0  0  0
 28 62  1  0  0  0
 29 63  1  0  0  0
 29 30  1  0  0  0
 29 64  1  0  0  0
 30 31  1  0  0  0
 31 32  1  0  0  0
 31 66  1  0  0  0
 32 33  1  0  0  0
 32 65  1  0  0  0
 33 64  1  0  0  0
 33 34  1  0  0  0
 35 66  1  0  0  0
 35 36  1  0  0  0
 35 67  1  0  0  0
 36 37  1  0  0  0
 37 38  1  0  0  0
 37 72  1  0  0  0
 38 39  1  0  0  0
 38 68  1  0  0  0
 39 67  1  0  0  0
 39 40  1  0  0  0
 41 68  1  0  0  0
 41 42  1  0  0  0
 41 69  1  0  0  0
 42 43  1  0  0  0
 43 44  1  0  0  0
 43 71  1  0  0  0
 44 45  1  0  0  0
 44 70  1  0  0  0
 45 69  1  0  0  0
 45 46  1  0  0  0
 47 70  1  0  0  0
 48 74  1  0  0  0
 49 50  1  0  0  0
 49 15  1  0  0  0
 50 73  1  0  0  0
 51 13  1  0  0  0
 52 51  1  0  0  0
 13 14  2  0  0  0
 15 16  2  0  0  0
 17 18  2  0  0  0
 19 58  2  0  0  0
 24 59  2  0  0  0
 48 49  2  0  0  0
 50 51  2  0  0  0
M  END
> <rmsd>
0.682168901

$$$$
MolPort-046-697-245 MCULE-7520874279


 63 69  0  0  0  0  0  0  0  0999 V2000
   -6.1786   20.2037   44.5729 C   0  0  0  0  0
   -4.7720   19.7379   44.4631 C   0  0  0  0  0
   -3.0657   17.9079   44.8446 C   0  0  0  0  0
   -2.7099   17.5186   43.4085 C   0  0  0  0  0
   -1.3371   16.8551   43.3710 C   0  0  0  0  0
   -1.1946   15.7705   44.4515 C   0  0  0  0  0
   -1.8215   14.4352   44.0663 C   0  0  0  0  0
   -2.8778   16.7252   45.8016 C   0  0  0  0  0
   -4.4289   15.3386   46.8454 C   0  0  0  0  0
   -5.4710   14.2712   46.5490 C   0  0  0  0  0
   -5.1642   16.5153   47.4893 C   0  0  0  0  0
   -3.3688   14.7624   47.8116 C   0  0  0  0  0
   -3.9493   14.3216   49.1709 C   0  0  0  0  0
   -2.8150   13.8358   50.0834 C   0  0  0  0  0
   -1.8985   12.8586   49.3449 C   0  0  0  0  0
   -2.6313   11.5360   49.1408 C   0  0  0  0  0
   -0.6608   12.5888   50.1594 C   0  0  0  0  0
    0.5689   12.4878   49.6184 C   0  0  0  0  0
    0.8148   12.7082   48.1336 C   0  0  0  0  0
   -0.4605   12.6863   47.2893 C   0  0  0  0  0
   -1.5225   13.5068   47.9998 C   0  0  0  0  0
    1.7267   12.2208   50.5475 C   0  0  0  0  0
    3.0430   12.8145   50.0964 C   0  0  0  0  0
    4.0830   12.0616   50.8917 C   0  0  0  0  0
    3.5273   10.6501   51.0751 C   0  0  0  0  0
    1.9961   10.7493   50.9031 C   0  0  0  0  0
    1.5979    9.7983   49.7806 C   0  0  0  0  0
    1.2075   10.3673   52.1656 C   0  0  0  0  0
    1.8151   10.9201   53.4594 C   0  0  0  0  0
    3.3137   10.5998   53.6118 C   0  0  0  0  0
    3.0707    8.5901   54.7179 C   0  0  0  0  0
    3.8451    7.7931   53.6619 C   0  0  0  0  0
    3.6730    8.4677   52.3055 C   0  0  0  0  0
    4.0027    9.9643   52.3774 C   0  0  0  0  0
    5.5159   10.1049   52.5180 C   0  0  0  0  0
    3.1069    7.9023   56.0907 C   0  0  0  0  0
    2.4338    6.5336   55.9503 C   0  0  0  0  0
    2.2825    8.7502   57.0511 C   0  0  0  0  0
    4.7255    6.9649   57.6019 C   0  0  0  0  0
    3.0781    6.1638   59.0434 C   0  0  0  0  0
    2.1687    6.5353   60.2017 C   0  0  0  0  0
    3.8294    4.8645   59.3801 C   0  0  0  0  0
    5.0473    4.6403   58.4793 C   0  0  0  0  0
    4.9549    5.4938   57.2111 C   0  0  0  0  0
    6.5089    4.1707   55.7080 C   0  0  0  0  0
    7.7617    4.1211   54.9099 C   0  0  0  0  0
   -3.8999   20.4974   43.9632 O   0  0  0  0  0
   -3.6732   16.6636   42.8660 O   0  0  0  0  0
   -0.3422   17.8188   43.5415 O   0  0  0  0  0
   -1.1522   13.8932   42.9687 O   0  0  0  0  0
   -1.5593   16.1991   45.7565 O   0  0  0  0  0
   -3.8513   15.7179   45.6059 O   0  0  0  0  0
   -2.6634   13.7010   47.2055 O   0  0  0  0  0
    1.6121   12.2969   53.5485 O   0  0  0  0  0
    3.5930    9.9017   54.8108 O   0  0  0  0  0
    4.4674    7.8410   56.5141 O   0  0  0  0  0
    3.9712    7.2271   58.7792 O   0  0  0  0  0
    1.3133    7.5711   59.8249 O   0  0  0  0  0
    2.9612    3.7777   59.2629 O   0  0  0  0  0
    6.2108    4.9446   59.1912 O   0  0  0  0  0
    5.7627    3.1566   55.7620 O   0  0  0  0  0
   -4.4225   18.4354   44.9310 N   0  0  0  0  0
    6.1597    5.3715   56.3986 N   0  0  0  0  0
  1  2  1  0  0  0
  2 62  1  0  0  0
  3 62  1  0  0  0
  3  4  1  0  0  0
  4 48  1  0  0  0
  4  5  1  0  0  0
  5 49  1  0  0  0
  5  6  1  0  0  0
  6  7  1  0  0  0
  6 51  1  0  0  0
  7 50  1  0  0  0
  8 51  1  0  0  0
  8 52  1  0  0  0
  8  3  1  0  0  0
  9 52  1  0  0  0
  9 10  1  0  0  0
  9 11  1  0  0  0
  9 12  1  0  0  0
 12 13  1  0  0  0
 12 53  1  0  0  0
 13 14  1  0  0  0
 14 15  1  0  0  0
 15 16  1  0  0  0
 15 17  1  0  0  0
 19 18  1  0  0  0
 19 20  1  0  0  0
 20 21  1  0  0  0
 21 53  1  0  0  0
 21 15  1  0  0  0
 22 18  1  0  0  0
 22 23  1  0  0  0
 23 24  1  0  0  0
 24 25  1  0  0  0
 25 26  1  0  0  0
 26 27  1  0  0  0
 26 28  1  0  0  0
 26 22  1  0  0  0
 28 29  1  0  0  0
 29 54  1  0  0  0
 29 30  1  0  0  0
 30 55  1  0  0  0
 31 55  1  0  0  0
 31 32  1  0  0  0
 31 36  1  0  0  0
 32 33  1  0  0  0
 33 34  1  0  0  0
 34 35  1  0  0  0
 34 30  1  0  0  0
 34 25  1  0  0  0
 36 37  1  0  0  0
 36 38  1  0  0  0
 36 56  1  0  0  0
 39 56  1  0  0  0
 39 57  1  0  0  0
 40 57  1  0  0  0
 40 41  1  0  0  0
 40 42  1  0  0  0
 41 58  1  0  0  0
 42 59  1  0  0  0
 42 43  1  0  0  0
 43 60  1  0  0  0
 43 44  1  0  0  0
 44 63  1  0  0  0
 44 39  1  0  0  0
 46 45  1  0  0  0
 63 45  1  0  0  0
  2 47  2  0  0  0
 17 18  2  0  0  0
 45 61  2  0  0  0
M  END
> <rmsd>
0.681103051

$$$$
MolPort-007-902-538 ChemDiv-K216-2918 MCULE-8348451100 PubChem-46369000 ZINC000101646206


 45 48  0  0  0  0  0  0  0  0999 V2000
    8.4186    4.1786   54.7396 C   0  0  0  0  0
    7.1449    3.9524   55.5288 C   0  0  0  0  0
    4.9207    4.3826   54.5265 C   0  0  0  0  0
    3.9020    3.9554   53.6614 C   0  0  0  0  0
    3.0880    2.2669   52.0425 C   0  0  0  0  0
    2.7228    4.7103   53.5538 C   0  0  0  0  0
    2.5462    5.8801   54.3052 C   0  0  0  0  0
    3.5810    6.3128   55.1458 C   0  0  0  0  0
    4.7529    5.5655   55.2633 C   0  0  0  0  0
    1.3090    6.6756   54.1374 C   0  0  0  0  0
    0.6693    7.3716   55.1930 C   0  0  0  0  0
   -0.8872    8.2388   53.6365 C   0  0  0  0  0
   -1.3386   10.7220   52.9578 C   0  0  0  0  0
   -1.0507   10.8289   51.5005 C   0  0  0  0  0
   -1.9242   11.1241   49.1397 C   0  0  0  0  0
   -1.4643   12.5397   48.8342 C   0  0  0  0  0
   -1.3374   12.7434   47.3634 C   0  0  0  0  0
   -0.3434   12.0815   46.6357 C   0  0  0  0  0
   -0.2293   12.2907   45.2594 C   0  0  0  0  0
   -1.1059   13.1663   44.5963 C   0  0  0  0  0
   -0.0118   12.7723   42.4105 C   0  0  0  0  0
   -2.1013   13.8353   45.3265 C   0  0  0  0  0
   -4.0093   15.4136   45.3244 C   0  0  0  0  0
   -2.2079   13.6206   46.7109 C   0  0  0  0  0
    1.0564    7.2410   56.6121 C   0  0  0  0  0
    1.2876    5.9816   57.1829 C   0  0  0  0  0
    1.5888    5.8446   58.5425 C   0  0  0  0  0
    1.9980    4.1996   60.3836 C   0  0  0  0  0
    1.6524    7.0039   59.3567 C   0  0  0  0  0
    2.0044    8.0228   61.5998 C   0  0  0  0  0
    0.5974    8.3686   62.0487 C   0  0  0  0  0
    1.3985    8.2614   58.7811 C   0  0  0  0  0
    1.0943    8.3782   57.4253 C   0  0  0  0  0
    6.0871    3.6175   54.6383 O   0  0  0  0  0
    4.0803    2.7807   52.9223 O   0  0  0  0  0
    0.1439   10.8075   51.1002 O   0  0  0  0  0
   -1.0055   13.3867   43.2180 O   0  0  0  0  0
   -2.9707   14.7063   44.6600 O   0  0  0  0  0
    1.8113    4.5440   59.0193 O   0  0  0  0  0
    1.9736    6.9046   60.7173 O   0  0  0  0  0
   -0.4087    8.1457   54.9000 N   0  0  0  0  0
   -2.1290   10.9662   50.5725 N   0  0  0  0  0
   -0.2913    7.5382   52.6413 N   0  0  0  0  0
    0.7790    6.7834   52.8878 N   0  0  0  0  0
   -2.3311    9.2374   53.2988 S   0  0  0  0  0
  1  2  1  0  0  0
  2 34  1  0  0  0
  3 34  1  0  0  0
  4 35  1  0  0  0
  4  6  1  0  0  0
  5 35  1  0  0  0
  7  8  1  0  0  0
  7 10  1  0  0  0
  9  3  1  0  0  0
 10 11  1  0  0  0
 11 25  1  0  0  0
 12 41  1  0  0  0
 12 45  1  0  0  0
 13 45  1  0  0  0
 13 14  1  0  0  0
 14 42  1  0  0  0
 15 42  1  0  0  0
 15 16  1  0  0  0
 16 17  1  0  0  0
 18 19  1  0  0  0
 20 37  1  0  0  0
 20 22  1  0  0  0
 21 37  1  0  0  0
 22 38  1  0  0  0
 23 38  1  0  0  0
 24 17  1  0  0  0
 26 27  1  0  0  0
 27 39  1  0  0  0
 28 39  1  0  0  0
 29 40  1  0  0  0
 29 32  1  0  0  0
 30 40  1  0  0  0
 30 31  1  0  0  0
 33 25  1  0  0  0
 43 44  1  0  0  0
  3  4  2  0  0  0
  6  7  2  0  0  0
  8  9  2  0  0  0
 10 44  2  0  0  0
 11 41  2  0  0  0
 12 43  2  0  0  0
 14 36  2  0  0  0
 17 18  2  0  0  0
 19 20  2  0  0  0
 22 24  2  0  0  0
 25 26  2  0  0  0
 27 29  2  0  0  0
 32 33  2  0  0  0
M  END
> <rmsd>
0.800751984

$$$$
MolPort-046-683-104 MCULE-4650619874 PubChem-102514792


 79 84  0  0  0  0  0  0  0  0999 V2000
   18.2225    2.6345   58.3055 C   0  0  0  0  0
   16.8767    2.1180   57.9403 C   0  0  0  0  0
   16.7561    1.1469   56.9421 C   0  0  0  0  0
   15.4961    0.6496   56.6012 C   0  0  0  0  0
   14.3505    1.1230   57.2537 C   0  0  0  0  0
   14.4718    2.1043   58.2478 C   0  0  0  0  0
   15.7340    2.6039   58.5904 C   0  0  0  0  0
   11.5477    1.7743   56.7588 C   0  0  0  0  0
   11.1982    2.3166   58.1390 C   0  0  0  0  0
   10.3306    1.3314   58.9112 C   0  0  0  0  0
   12.2350    1.3953   61.0962 C   0  0  0  0  0
   12.8669    0.1441   61.0506 C   0  0  0  0  0
   14.2211    0.0324   61.3814 C   0  0  0  0  0
   14.9481    1.1701   61.7585 C   0  0  0  0  0
   14.3172    2.4211   61.8058 C   0  0  0  0  0
   12.9623    2.5339   61.4762 C   0  0  0  0  0
   16.3916    1.0484   62.0955 C   0  0  0  0  0
   10.5289    3.6552   58.0232 C   0  0  0  0  0
    9.2519    3.8526   57.2941 C   0  0  0  0  0
    8.6028    2.7703   56.6840 C   0  0  0  0  0
    7.4159    2.9648   55.9796 C   0  0  0  0  0
    6.8514    4.2440   55.8628 C   0  0  0  0  0
    7.4846    5.3246   56.4991 C   0  0  0  0  0
    8.6765    5.1318   57.2035 C   0  0  0  0  0
    5.5824    4.4051   55.1071 C   0  0  0  0  0
    5.8068    6.9113   54.6699 C   0  0  0  0  0
    6.8484    6.7752   53.5553 C   0  0  0  0  0
    6.2215    6.3853   52.2228 C   0  0  0  0  0
    4.3143    6.6543   51.1622 C   0  0  0  0  0
    2.9855    7.3319   51.4031 C   0  0  0  0  0
    0.9265    6.6350   51.7914 C   0  0  0  0  0
   -0.3742    6.1624   51.1620 C   0  0  0  0  0
   -1.6657    7.8353   50.4794 C   0  0  0  0  0
   -2.9654    7.6138   49.7210 C   0  0  0  0  0
   -2.7747    7.7543   48.2126 C   0  0  0  0  0
   -3.0910   10.2802   48.0658 C   0  0  0  0  0
   -2.5152   11.6056   47.7108 C   0  0  0  0  0
   -2.3111   11.7090   46.2126 C   0  0  0  0  0
   -1.2424   12.7543   45.9332 C   0  0  0  0  0
   -1.8466   14.0865   45.4968 C   0  0  0  0  0
   -2.1931   14.0721   44.0344 C   0  0  0  0  0
   -4.5209   14.8966   44.5497 C   0  0  0  0  0
   -5.1829   13.7521   45.3239 C   0  0  0  0  0
   -5.1386   13.7818   46.7229 C   0  0  0  0  0
   -5.8175   12.8120   47.4743 C   0  0  0  0  0
   -6.5638   11.8122   46.8352 C   0  0  0  0  0
   -6.6392   11.7807   45.4408 C   0  0  0  0  0
   -5.9679   12.7536   44.6926 C   0  0  0  0  0
   -5.9755   12.7725   43.2718 C   0  0  0  0  0
   -5.5820   13.1735   42.2244 C   0  0  0  0  0
   -4.7418   13.9975   41.4413 C   0  0  0  0  0
   -4.9469   14.2097   40.0788 C   0  0  0  0  0
   -4.1093   15.0899   39.3883 C   0  0  0  0  0
   -3.0815   15.7551   40.0624 C   0  0  0  0  0
   -2.8829   15.5532   41.4315 C   0  0  0  0  0
   -3.7137   14.6780   42.1438 C   0  0  0  0  0
    3.5803    5.8050   54.5126 C   0  0  0  0  0
    2.7447    5.4032   55.7215 C   0  0  0  0  0
    2.8691    6.4305   56.8342 C   0  0  0  0  0
   12.7709    0.4727   56.8228 S   0  0  0  0  0
   10.5397    1.5347   60.6696 S   0  0  0  0  0
    2.0565    5.8124   58.2925 S   0  0  0  0  0
   12.3682   -0.5764   57.8181 O   0  0  0  0  0
   12.8479   -0.1509   55.4577 O   0  0  0  0  0
   10.0136    2.8793   61.0806 O   0  0  0  0  0
    9.7671    0.4685   61.3933 O   0  0  0  0  0
   11.0834    4.6383   58.5757 O   0  0  0  0  0
    4.9829    3.3662   54.7048 O   0  0  0  0  0
    5.3300    7.3677   51.7999 O   0  0  0  0  0
    1.9667    6.5502   50.8617 O   0  0  0  0  0
   -0.6834    6.9428   50.0457 O   0  0  0  0  0
   -4.2497   10.2146   48.5532 O   0  0  0  0  0
   -1.3131   13.7153   43.2049 O   0  0  0  0  0
    0.6502    5.3883   57.9565 O   0  0  0  0  0
    2.0128    6.8905   59.3430 O   0  0  0  0  0
    2.9157    4.4985   58.8898 O   0  0  0  0  0
    5.0070    5.6949   54.8107 N   0  0  0  0  0
   -2.3117    9.0937   47.8671 N   0  0  0  0  0
   -3.4966   14.4686   43.5729 N   0  0  0  0  0
  1  2  1  0  0  0
  3  4  1  0  0  0
  5  6  1  0  0  0
  7  2  1  0  0  0
  8  9  1  0  0  0
  9 10  1  0  0  0
  9 18  1  0  0  0
 10 61  1  0  0  0
 12 13  1  0  0  0
 14 15  1  0  0  0
 16 11  1  0  0  0
 17 14  1  0  0  0
 18 19  1  0  0  0
 20 21  1  0  0  0
 22 23  1  0  0  0
 22 25  1  0  0  0
 24 19  1  0  0  0
 25 77  1  0  0  0
 26 77  1  0  0  0
 26 27  1  0  0  0
 27 28  1  0  0  0
 28 69  1  0  0  0
 29 69  1  0  0  0
 29 30  1  0  0  0
 30 70  1  0  0  0
 31 70  1  0  0  0
 31 32  1  0  0  0
 32 71  1  0  0  0
 33 71  1  0  0  0
 33 34  1  0  0  0
 34 35  1  0  0  0
 35 78  1  0  0  0
 37 36  1  0  0  0
 37 38  1  0  0  0
 38 39  1  0  0  0
 39 40  1  0  0  0
 40 41  1  0  0  0
 41 79  1  0  0  0
 42 79  1  0  0  0
 42 43  1  0  0  0
 44 45  1  0  0  0
 46 47  1  0  0  0
 48 49  1  0  0  0
 48 43  1  0  0  0
 51 50  1  0  0  0
 52 53  1  0  0  0
 54 55  1  0  0  0
 56 79  1  0  0  0
 56 51  1  0  0  0
 57 77  1  0  0  0
 57 58  1  0  0  0
 58 59  1  0  0  0
 59 62  1  0  0  0
 60  5  1  0  0  0
 60  8  1  0  0  0
 61 11  1  0  0  0
 62 76  1  0  0  0
 78 36  1  0  0  0
  2  3  2  0  0  0
  4  5  2  0  0  0
  6  7  2  0  0  0
 11 12  2  0  0  0
 13 14  2  0  0  0
 15 16  2  0  0  0
 18 67  2  0  0  0
 19 20  2  0  0  0
 21 22  2  0  0  0
 23 24  2  0  0  0
 25 68  2  0  0  0
 36 72  2  0  0  0
 41 73  2  0  0  0
 43 44  2  0  0  0
 45 46  2  0  0  0
 47 48  2  0  0  0
 51 52  2  0  0  0
 53 54  2  0  0  0
 55 56  2  0  0  0
 60 63  2  0  0  0
 60 64  2  0  0  0
 61 65  2  0  0  0
 61 66  2  0  0  0
 62 74  2  0  0  0
 62 75  2  0  0  0
 49 50  3  0  0  0
M  END
> <rmsd>
0.643242538

$$$$
MolPort-047-972-200 LN02182760 MCULE-8769697728 PubChem-14525324


 78 85  0  0  0  0  0  0  0  0999 V2000
    3.6350    8.8529   54.3811 C   0  0  0  0  0
    3.7996    7.4162   53.9028 C   0  0  0  0  0
    4.6706    6.6749   54.9036 C   0  0  0  0  0
    5.1939    5.3720   54.3210 C   0  0  0  0  0
    6.1165    4.7155   55.3502 C   0  0  0  0  0
    7.4703    4.3396   54.7378 C   0  0  0  0  0
    8.3863    3.8042   55.8172 C   0  0  0  0  0
    8.1370    5.5540   54.1174 C   0  0  0  0  0
    4.8569    4.0249   57.0685 C   0  0  0  0  0
    5.0655    3.0111   58.2099 C   0  0  0  0  0
    3.7260    2.7181   58.9081 C   0  0  0  0  0
    2.9810    4.0163   59.1934 C   0  0  0  0  0
    2.8648    4.8580   57.9070 C   0  0  0  0  0
    3.3392    6.2988   58.1099 C   0  0  0  0  0
    6.8795    2.5122   59.4226 C   0  0  0  0  0
    7.2205    2.5500   60.9204 C   0  0  0  0  0
    8.6762    2.1252   61.1681 C   0  0  0  0  0
    9.0875    1.0168   60.1988 C   0  0  0  0  0
    8.8097    1.4398   58.7464 C   0  0  0  0  0
    8.2055    0.2883   57.9528 C   0  0  0  0  0
    2.4440    6.7048   53.6937 C   0  0  0  0  0
    1.5590    6.7258   54.9310 C   0  0  0  0  0
    0.3784    7.6042   54.5827 C   0  0  0  0  0
    0.1749    7.4874   53.0745 C   0  0  0  0  0
    1.5898    7.1400   52.4807 C   0  0  0  0  0
    2.2110    8.3396   51.7272 C   0  0  0  0  0
    1.3132    8.9759   50.6519 C   0  0  0  0  0
   -0.2110    8.9141   50.9473 C   0  0  0  0  0
   -0.4387    8.7953   52.4802 C   0  0  0  0  0
    0.0855   10.0482   53.2158 C   0  0  0  0  0
   -0.2066   11.3454   52.5170 C   0  0  0  0  0
   -0.6359   11.4407   51.2448 C   0  0  0  0  0
   -0.8850   10.2072   50.4111 C   0  0  0  0  0
   -2.3951   10.0935   50.1224 C   0  0  0  0  0
   -3.0590   11.4479   49.7961 C   0  0  0  0  0
   -2.0470   12.5659   49.4884 C   0  0  0  0  0
   -1.0636   12.7813   50.6673 C   0  0  0  0  0
   -1.7282   13.6480   51.7407 C   0  0  0  0  0
    0.1670   13.5025   50.1560 C   0  0  0  0  0
   -2.8223   13.8329   47.7966 C   0  0  0  0  0
   -2.3581   15.2282   47.3613 C   0  0  0  0  0
   -2.5302   15.3795   45.8570 C   0  0  0  0  0
   -3.9618   15.0363   45.4540 C   0  0  0  0  0
   -4.3429   13.6670   46.0299 C   0  0  0  0  0
   -3.6938   12.5002   45.2865 C   0  0  0  0  0
   -3.0832   12.3548   43.1317 C   0  0  0  0  0
   -2.4422   13.7295   42.8770 C   0  0  0  0  0
   -2.6054   14.1810   41.4210 C   0  0  0  0  0
   -4.0050   13.8737   40.8914 C   0  0  0  0  0
   -4.4652   12.4426   41.2918 C   0  0  0  0  0
   -5.0549   11.6420   40.1336 C   0  0  0  0  0
   -0.8226    7.7108   50.2246 C   0  0  0  0  0
    1.5764    5.9604   51.5173 C   0  0  0  0  0
   -0.8445    6.3616   52.8964 C   0  0  0  0  0
    7.3054    3.3627   53.7572 O   0  0  0  0  0
    5.4956    3.5888   55.9013 O   0  0  0  0  0
    3.4848    4.2499   56.7882 O   0  0  0  0  0
    2.5358    6.9531   59.0514 O   0  0  0  0  0
    1.7046    3.7306   59.6803 O   0  0  0  0  0
    3.9139    1.9971   60.0868 O   0  0  0  0  0
    5.9903    3.5497   59.1200 O   0  0  0  0  0
    8.0401    2.6297   58.6305 O   0  0  0  0  0
    8.0917    0.6409   56.6092 O   0  0  0  0  0
   10.4467    0.7306   60.3478 O   0  0  0  0  0
    8.8666    1.7312   62.4945 O   0  0  0  0  0
    6.3458    1.6984   61.5995 O   0  0  0  0  0
   -2.7318   13.7531   49.1914 O   0  0  0  0  0
   -4.1709   13.6027   47.4334 O   0  0  0  0  0
   -4.1967   12.4601   43.9815 O   0  0  0  0  0
   -3.4299   11.7064   41.9206 O   0  0  0  0  0
   -5.6785   10.4865   40.6227 O   0  0  0  0  0
   -4.0413   14.0837   39.5043 O   0  0  0  0  0
   -2.3417   15.5511   41.3183 O   0  0  0  0  0
   -1.0860   13.6795   43.2016 O   0  0  0  0  0
   -4.8511   15.9996   45.9376 O   0  0  0  0  0
   -2.2072   16.6771   45.4497 O   0  0  0  0  0
   -1.0146   15.4035   47.6960 O   0  0  0  0  0
    1.6439    8.4914   49.3828 O   0  0  0  0  0
  1  2  1  0  0  0
  2  3  1  0  0  0
  2 21  1  0  0  0
  3  4  1  0  0  0
  4  5  1  0  0  0
  5  6  1  0  0  0
  5 56  1  0  0  0
  6  7  1  0  0  0
  6  8  1  0  0  0
  6 55  1  0  0  0
  9 56  1  0  0  0
  9 10  1  0  0  0
  9 57  1  0  0  0
 10 11  1  0  0  0
 10 61  1  0  0  0
 11 12  1  0  0  0
 11 60  1  0  0  0
 12 13  1  0  0  0
 12 59  1  0  0  0
 13 57  1  0  0  0
 13 14  1  0  0  0
 14 58  1  0  0  0
 15 61  1  0  0  0
 15 16  1  0  0  0
 15 62  1  0  0  0
 16 17  1  0  0  0
 16 66  1  0  0  0
 17 18  1  0  0  0
 17 65  1  0  0  0
 18 19  1  0  0  0
 18 64  1  0  0  0
 19 62  1  0  0  0
 19 20  1  0  0  0
 20 63  1  0  0  0
 21 22  1  0  0  0
 22 23  1  0  0  0
 23 24  1  0  0  0
 24 25  1  0  0  0
 24 54  1  0  0  0
 25 26  1  0  0  0
 25 53  1  0  0  0
 25 21  1  0  0  0
 26 27  1  0  0  0
 27 28  1  0  0  0
 27 78  1  0  0  0
 28 29  1  0  0  0
 28 52  1  0  0  0
 29 30  1  0  0  0
 29 24  1  0  0  0
 30 31  1  0  0  0
 33 32  1  0  0  0
 33 34  1  0  0  0
 33 28  1  0  0  0
 34 35  1  0  0  0
 35 36  1  0  0  0
 36 37  1  0  0  0
 36 67  1  0  0  0
 37 38  1  0  0  0
 37 39  1  0  0  0
 37 32  1  0  0  0
 40 67  1  0  0  0
 40 41  1  0  0  0
 40 68  1  0  0  0
 41 42  1  0  0  0
 41 77  1  0  0  0
 42 43  1  0  0  0
 42 76  1  0  0  0
 43 44  1  0  0  0
 43 75  1  0  0  0
 44 68  1  0  0  0
 44 45  1  0  0  0
 45 69  1  0  0  0
 46 69  1  0  0  0
 46 47  1  0  0  0
 46 70  1  0  0  0
 47 48  1  0  0  0
 47 74  1  0  0  0
 48 49  1  0  0  0
 48 73  1  0  0  0
 49 50  1  0  0  0
 49 72  1  0  0  0
 50 70  1  0  0  0
 50 51  1  0  0  0
 51 71  1  0  0  0
 31 32  2  0  0  0
M  END
> <rmsd>
0.877391756

$$$$
MolPort-047-972-200 LN02182760 MCULE-8769697728 PubChem-14525324


 78 85  0  0  0  0  0  0  0  0999 V2000
    6.4607    8.8497   53.4710 C   0  0  0  0  0
    5.4002    8.0278   54.1914 C   0  0  0  0  0
    6.1492    6.9683   54.9930 C   0  0  0  0  0
    5.2420    6.0352   55.7813 C   0  0  0  0  0
    6.0188    5.0798   56.6957 C   0  0  0  0  0
    6.8392    4.0217   55.9222 C   0  0  0  0  0
    8.0175    4.6562   55.2103 C   0  0  0  0  0
    7.4068    2.9875   56.8823 C   0  0  0  0  0
    5.1608    5.0979   58.7665 C   0  0  0  0  0
    5.1583    4.0626   59.9250 C   0  0  0  0  0
    3.7951    3.9997   60.6260 C   0  0  0  0  0
    3.3538    5.4009   61.0610 C   0  0  0  0  0
    3.9698    6.4841   60.1625 C   0  0  0  0  0
    3.1427    7.7605   60.1986 C   0  0  0  0  0
    6.2808    2.2436   60.5895 C   0  0  0  0  0
    6.3257    0.7169   60.4484 C   0  0  0  0  0
    7.6853    0.1622   60.9046 C   0  0  0  0  0
    8.2526    0.9148   62.1158 C   0  0  0  0  0
    8.0428    2.4357   61.9686 C   0  0  0  0  0
    9.3290    3.1824   62.2704 C   0  0  0  0  0
    4.3564    7.4182   53.2149 C   0  0  0  0  0
    3.0839    7.0142   53.9646 C   0  0  0  0  0
    1.9018    7.2729   53.0395 C   0  0  0  0  0
    2.4826    7.6471   51.6896 C   0  0  0  0  0
    3.8653    8.2788   52.0322 C   0  0  0  0  0
    3.7383    9.7506   52.4762 C   0  0  0  0  0
    2.8779   10.5989   51.5492 C   0  0  0  0  0
    1.4487   10.0347   51.4674 C   0  0  0  0  0
    1.5334    8.5959   50.8864 C   0  0  0  0  0
    1.9801    8.6197   49.4090 C   0  0  0  0  0
    1.2935    9.6447   48.5658 C   0  0  0  0  0
    0.6852   10.7278   49.0674 C   0  0  0  0  0
    0.5983   10.9692   50.5565 C   0  0  0  0  0
   -0.8837   11.1232   50.9285 C   0  0  0  0  0
   -1.5578   12.2628   50.1400 C   0  0  0  0  0
   -0.7077   12.8172   48.9793 C   0  0  0  0  0
   -0.0365   11.6993   48.1468 C   0  0  0  0  0
   -1.0910   10.9578   47.3325 C   0  0  0  0  0
    0.9717   12.3199   47.1899 C   0  0  0  0  0
   -1.0301   14.9992   48.3327 C   0  0  0  0  0
   -1.2538   15.5527   49.7513 C   0  0  0  0  0
   -0.3209   16.7320   50.0393 C   0  0  0  0  0
    0.0604   17.4865   48.7615 C   0  0  0  0  0
    0.5627   16.5170   47.6564 C   0  0  0  0  0
    0.1556   16.9217   46.2393 C   0  0  0  0  0
    0.1335   15.8348   44.2262 C   0  0  0  0  0
   -0.7876   14.6413   44.5655 C   0  0  0  0  0
   -1.9615   14.5862   43.5900 C   0  0  0  0  0
   -2.6964   15.9281   43.5525 C   0  0  0  0  0
   -1.7951   17.1007   43.9665 C   0  0  0  0  0
   -2.3498   18.3969   43.4038 C   0  0  0  0  0
    0.8381   10.0097   52.8765 C   0  0  0  0  0
    4.8469    8.1943   50.8654 C   0  0  0  0  0
    2.6351    6.3130   50.9444 C   0  0  0  0  0
    6.0316    3.3714   54.9880 O   0  0  0  0  0
    5.0960    4.4394   57.5318 O   0  0  0  0  0
    4.0845    6.0164   58.8403 O   0  0  0  0  0
    1.8747    7.5383   59.6594 O   0  0  0  0  0
    3.7352    5.6220   62.3832 O   0  0  0  0  0
    2.8329    3.4521   59.7729 O   0  0  0  0  0
    5.5942    2.7980   59.5026 O   0  0  0  0  0
    7.5820    2.7761   60.6802 O   0  0  0  0  0
    9.6087    3.1141   63.6352 O   0  0  0  0  0
    7.6310    0.4838   63.2856 O   0  0  0  0  0
    7.6305   -1.2162   61.1324 O   0  0  0  0  0
    5.2905    0.1596   61.2027 O   0  0  0  0  0
   -1.4908   13.6726   48.1798 O   0  0  0  0  0
    0.3103   15.1455   47.9115 O   0  0  0  0  0
    0.9521   16.2543   45.2966 O   0  0  0  0  0
   -0.4698   16.9117   43.5172 O   0  0  0  0  0
   -1.6409   19.4781   43.9200 O   0  0  0  0  0
   -3.8041   15.8688   44.3950 O   0  0  0  0  0
   -1.5119   14.2662   42.3054 O   0  0  0  0  0
   -0.0650   13.4483   44.5236 O   0  0  0  0  0
   -1.0345   18.2406   48.3300 O   0  0  0  0  0
    0.8334   16.2652   50.6722 O   0  0  0  0  0
   -2.5826   15.9531   49.8967 O   0  0  0  0  0
    2.8723   11.9214   52.0085 O   0  0  0  0  0
  1  2  1  0  0  0
  2  3  1  0  0  0
  2 21  1  0  0  0
  3  4  1  0  0  0
  4  5  1  0  0  0
  5  6  1  0  0  0
  5 56  1  0  0  0
  6  7  1  0  0  0
  6  8  1  0  0  0
  6 55  1  0  0  0
  9 56  1  0  0  0
  9 10  1  0  0  0
  9 57  1  0  0  0
 10 11  1  0  0  0
 10 61  1  0  0  0
 11 12  1  0  0  0
 11 60  1  0  0  0
 12 13  1  0  0  0
 12 59  1  0  0  0
 13 57  1  0  0  0
 13 14  1  0  0  0
 14 58  1  0  0  0
 15 61  1  0  0  0
 15 16  1  0  0  0
 15 62  1  0  0  0
 16 17  1  0  0  0
 16 66  1  0  0  0
 17 18  1  0  0  0
 17 65  1  0  0  0
 18 19  1  0  0  0
 18 64  1  0  0  0
 19 62  1  0  0  0
 19 20  1  0  0  0
 20 63  1  0  0  0
 21 22  1  0  0  0
 22 23  1  0  0  0
 23 24  1  0  0  0
 24 25  1  0  0  0
 24 54  1  0  0  0
 25 26  1  0  0  0
 25 53  1  0  0  0
 25 21  1  0  0  0
 26 27  1  0  0  0
 27 28  1  0  0  0
 27 78  1  0  0  0
 28 29  1  0  0  0
 28 52  1  0  0  0
 29 30  1  0  0  0
 29 24  1  0  0  0
 30 31  1  0  0  0
 33 32  1  0  0  0
 33 34  1  0  0  0
 33 28  1  0  0  0
 34 35  1  0  0  0
 35 36  1  0  0  0
 36 37  1  0  0  0
 36 67  1  0  0  0
 37 38  1  0  0  0
 37 39  1  0  0  0
 37 32  1  0  0  0
 40 67  1  0  0  0
 40 41  1  0  0  0
 40 68  1  0  0  0
 41 42  1  0  0  0
 41 77  1  0  0  0
 42 43  1  0  0  0
 42 76  1  0  0  0
 43 44  1  0  0  0
 43 75  1  0  0  0
 44 68  1  0  0  0
 44 45  1  0  0  0
 45 69  1  0  0  0
 46 69  1  0  0  0
 46 47  1  0  0  0
 46 70  1  0  0  0
 47 48  1  0  0  0
 47 74  1  0  0  0
 48 49  1  0  0  0
 48 73  1  0  0  0
 49 50  1  0  0  0
 49 72  1  0  0  0
 50 70  1  0  0  0
 50 51  1  0  0  0
 51 71  1  0  0  0
 31 32  2  0  0  0
M  END
> <rmsd>
0.650500715

$$$$
MolPort-047-972-200 LN02182760 MCULE-8769697728 PubChem-14525324


 78 85  0  0  0  0  0  0  0  0999 V2000
    6.2159    7.9323   51.6397 C   0  0  0  0  0
    5.1499    7.1920   52.4366 C   0  0  0  0  0
    5.8604    6.5805   53.6396 C   0  0  0  0  0
    4.9448    5.7846   54.5580 C   0  0  0  0  0
    5.6479    5.3099   55.8357 C   0  0  0  0  0
    6.7265    4.2324   55.5783 C   0  0  0  0  0
    7.9292    4.8212   54.8678 C   0  0  0  0  0
    7.2271    3.6601   56.8956 C   0  0  0  0  0
    4.4171    5.8034   57.6431 C   0  0  0  0  0
    4.3250    5.1879   59.0667 C   0  0  0  0  0
    2.8725    5.0970   59.5521 C   0  0  0  0  0
    2.1839    6.4604   59.4328 C   0  0  0  0  0
    2.8180    7.3106   58.3214 C   0  0  0  0  0
    1.8453    8.3663   57.8175 C   0  0  0  0  0
    5.5207    3.8915   60.4452 C   0  0  0  0  0
    5.7833    2.4289   60.8251 C   0  0  0  0  0
    7.0904    2.2942   61.6237 C   0  0  0  0  0
    7.3182    3.4695   62.5839 C   0  0  0  0  0
    6.9506    4.8092   61.9139 C   0  0  0  0  0
    8.0518    5.8313   62.1273 C   0  0  0  0  0
    4.3955    6.1362   51.5818 C   0  0  0  0  0
    3.0650    5.7576   52.2381 C   0  0  0  0  0
    2.0570    5.5045   51.1246 C   0  0  0  0  0
    2.8317    5.5477   49.8217 C   0  0  0  0  0
    4.0336    6.4920   50.1247 C   0  0  0  0  0
    3.6404    7.9809   50.0343 C   0  0  0  0  0
    2.8719    8.3366   48.7685 C   0  0  0  0  0
    1.5667    7.5265   48.6801 C   0  0  0  0  0
    1.9404    6.0190   48.6259 C   0  0  0  0  0
    2.6528    5.6715   47.3013 C   0  0  0  0  0
    2.0154    6.2493   46.0795 C   0  0  0  0  0
    1.1916    7.3054   46.1045 C   0  0  0  0  0
    0.7940    7.9695   47.4022 C   0  0  0  0  0
   -0.7391    7.9598   47.4923 C   0  0  0  0  0
   -1.3891    8.6637   46.2854 C   0  0  0  0  0
   -0.4109    8.9816   45.1369 C   0  0  0  0  0
    0.5413    7.8033   44.8232 C   0  0  0  0  0
   -0.2376    6.6716   44.1620 C   0  0  0  0  0
    1.6266    8.2738   43.8651 C   0  0  0  0  0
   -0.8765   10.7670   43.7662 C   0  0  0  0  0
   -1.4333   11.6767   44.8759 C   0  0  0  0  0
   -0.7278   13.0356   44.8841 C   0  0  0  0  0
   -0.2089   13.4204   43.4949 C   0  0  0  0  0
    0.6118   12.2674   42.8542 C   0  0  0  0  0
    0.4335   12.1405   41.3410 C   0  0  0  0  0
    0.9308   10.5065   39.8189 C   0  0  0  0  0
    0.1195    9.3277   40.4025 C   0  0  0  0  0
   -0.8314    8.7672   39.3469 C   0  0  0  0  0
   -1.7087    9.8783   38.7655 C   0  0  0  0  0
   -1.0572   11.2636   38.8891 C   0  0  0  0  0
   -1.6536   12.2044   37.8577 C   0  0  0  0  0
    0.7079    7.8225   49.9186 C   0  0  0  0  0
    5.2215    6.2343   49.2003 C   0  0  0  0  0
    3.2894    4.1003   49.5889 C   0  0  0  0  0
    6.1993    3.1940   54.8092 O   0  0  0  0  0
    4.6712    4.7996   56.6997 O   0  0  0  0  0
    3.2395    6.4909   57.2582 O   0  0  0  0  0
    0.7409    7.7656   57.2114 O   0  0  0  0  0
    2.2766    7.1390   60.6468 O   0  0  0  0  0
    2.1663    4.1514   58.8032 O   0  0  0  0  0
    4.9887    3.9550   59.1516 O   0  0  0  0  0
    6.7036    4.6517   60.5346 O   0  0  0  0  0
    8.0736    6.2338   63.4627 O   0  0  0  0  0
    6.5451    3.3109   63.7318 O   0  0  0  0  0
    7.1671    1.0647   62.2849 O   0  0  0  0  0
    4.7023    1.9510   61.5695 O   0  0  0  0  0
   -1.1293    9.3967   43.9985 O   0  0  0  0  0
    0.4902   11.0171   43.5111 O   0  0  0  0  0
    1.4719   11.3726   40.7929 O   0  0  0  0  0
    0.3423   11.1888   38.7168 O   0  0  0  0  0
   -1.1972   13.5006   38.0803 O   0  0  0  0  0
   -2.9397    9.8801   39.4173 O   0  0  0  0  0
   -0.1095    8.1575   38.3165 O   0  0  0  0  0
    0.9812    8.3295   40.8588 O   0  0  0  0  0
   -1.2881   13.7967   42.6901 O   0  0  0  0  0
    0.3347   13.0000   45.7900 O   0  0  0  0  0
   -2.8051   11.8561   44.6941 O   0  0  0  0  0
    2.6129    9.7124   48.7586 O   0  0  0  0  0
  1  2  1  0  0  0
  2  3  1  0  0  0
  2 21  1  0  0  0
  3  4  1  0  0  0
  4  5  1  0  0  0
  5  6  1  0  0  0
  5 56  1  0  0  0
  6  7  1  0  0  0
  6  8  1  0  0  0
  6 55  1  0  0  0
  9 56  1  0  0  0
  9 10  1  0  0  0
  9 57  1  0  0  0
 10 11  1  0  0  0
 10 61  1  0  0  0
 11 12  1  0  0  0
 11 60  1  0  0  0
 12 13  1  0  0  0
 12 59  1  0  0  0
 13 57  1  0  0  0
 13 14  1  0  0  0
 14 58  1  0  0  0
 15 61  1  0  0  0
 15 16  1  0  0  0
 15 62  1  0  0  0
 16 17  1  0  0  0
 16 66  1  0  0  0
 17 18  1  0  0  0
 17 65  1  0  0  0
 18 19  1  0  0  0
 18 64  1  0  0  0
 19 62  1  0  0  0
 19 20  1  0  0  0
 20 63  1  0  0  0
 21 22  1  0  0  0
 22 23  1  0  0  0
 23 24  1  0  0  0
 24 25  1  0  0  0
 24 54  1  0  0  0
 25 26  1  0  0  0
 25 53  1  0  0  0
 25 21  1  0  0  0
 26 27  1  0  0  0
 27 28  1  0  0  0
 27 78  1  0  0  0
 28 29  1  0  0  0
 28 52  1  0  0  0
 29 30  1  0  0  0
 29 24  1  0  0  0
 30 31  1  0  0  0
 33 32  1  0  0  0
 33 34  1  0  0  0
 33 28  1  0  0  0
 34 35  1  0  0  0
 35 36  1  0  0  0
 36 37  1  0  0  0
 36 67  1  0  0  0
 37 38  1  0  0  0
 37 39  1  0  0  0
 37 32  1  0  0  0
 40 67  1  0  0  0
 40 41  1  0  0  0
 40 68  1  0  0  0
 41 42  1  0  0  0
 41 77  1  0  0  0
 42 43  1  0  0  0
 42 76  1  0  0  0
 43 44  1  0  0  0
 43 75  1  0  0  0
 44 68  1  0  0  0
 44 45  1  0  0  0
 45 69  1  0  0  0
 46 69  1  0  0  0
 46 47  1  0  0  0
 46 70  1  0  0  0
 47 48  1  0  0  0
 47 74  1  0  0  0
 48 49  1  0  0  0
 48 73  1  0  0  0
 49 50  1  0  0  0
 49 72  1  0  0  0
 50 70  1  0  0  0
 50 51  1  0  0  0
 51 71  1  0  0  0
 31 32  2  0  0  0
M  END
> <rmsd>
0.667599797

$$$$
MolPort-044-637-484 MCULE-6012940007 PubChem-132331218


 54 55  0  0  0  0  0  0  0  0999 V2000
    3.2581    2.3875   62.8573 C   0  0  0  0  0
    4.5354    2.9843   62.3009 C   0  0  0  0  0
    4.7994    4.3157   62.9773 C   0  0  0  0  0
    6.0586    4.9602   62.4204 C   0  0  0  0  0
    5.7377    5.7799   61.1779 C   0  0  0  0  0
    5.6649    4.9185   59.9548 C   0  0  0  0  0
    3.2779    5.4623   59.5774 C   0  0  0  0  0
    2.0765    4.6070   59.1761 C   0  0  0  0  0
    0.7706    5.3968   59.2819 C   0  0  0  0  0
    0.9460    6.7682   58.6104 C   0  0  0  0  0
   -0.3297    7.5979   58.6956 C   0  0  0  0  0
    3.1922    6.8065   58.8392 C   0  0  0  0  0
    4.7046    8.1696   57.9443 C   0  0  0  0  0
    6.0183    7.5097   57.4890 C   0  0  0  0  0
    5.7502    6.2671   56.6545 C   0  0  0  0  0
    6.9808    4.3118   55.8143 C   0  0  0  0  0
    8.2589    3.5629   55.7092 C   0  0  0  0  0
    6.3007    9.3290   56.0164 C   0  0  0  0  0
    5.4180   10.2947   56.8155 C   0  0  0  0  0
    4.9017    9.6713   58.1102 C   0  0  0  0  0
    6.3000    8.9213   53.8337 C   0  0  0  0  0
    5.4682    9.6947   52.8221 C   0  0  0  0  0
    4.2557    8.8890   52.3734 C   0  0  0  0  0
    3.2966    9.7573   51.5650 C   0  0  0  0  0
    3.8919   10.1796   50.2259 C   0  0  0  0  0
    2.9572   11.1395   49.5057 C   0  0  0  0  0
    1.7137   10.4271   48.9966 C   0  0  0  0  0
    2.0401    9.6028   47.7617 C   0  0  0  0  0
    0.7886    8.9161   47.2366 C   0  0  0  0  0
   -0.1803    9.9143   46.6138 C   0  0  0  0  0
    0.1877   10.2247   45.1663 C   0  0  0  0  0
    1.3673   11.1873   45.0694 C   0  0  0  0  0
    1.0062   12.5846   45.5580 C   0  0  0  0  0
    0.1842   13.3396   44.5225 C   0  0  0  0  0
   -1.3023   13.0263   44.6682 C   0  0  0  0  0
   -2.1070   13.5053   43.4976 C   0  0  0  0  0
    6.6984    4.3170   59.5616 O   0  0  0  0  0
    4.4772    4.7771   59.2321 O   0  0  0  0  0
   -0.6483    7.8753   60.0266 O   0  0  0  0  0
    2.0089    7.4702   59.2085 O   0  0  0  0  0
    4.2926    7.6080   59.1583 O   0  0  0  0  0
    6.9447    5.5116   56.5245 O   0  0  0  0  0
    5.9446    3.8531   55.2628 O   0  0  0  0  0
    6.9457    8.3766   56.8463 O   0  0  0  0  0
    3.6960   10.2765   58.4678 O   0  0  0  0  0
    6.1412   11.4489   57.1145 O   0  0  0  0  0
    5.5621    8.7097   55.0009 O   0  0  0  0  0
   -1.5748   14.1586   42.5601 O   0  0  0  0  0
   -3.4652   13.2187   43.4433 O   0  0  0  0  0
   -1.7932   13.6043   45.8401 O   0  0  0  0  0
    4.6546    7.7756   51.6305 O   0  0  0  0  0
   -0.2517    4.6833   58.6522 O   0  0  0  0  0
    2.0105    3.4737   59.9880 O   0  0  0  0  0
    6.5970    5.8043   63.3890 O   0  0  0  0  0
  1  2  1  0  0  0
  2  3  1  0  0  0
  3  4  1  0  0  0
  4  5  1  0  0  0
  4 54  1  0  0  0
  5  6  1  0  0  0
  6 38  1  0  0  0
  7 38  1  0  0  0
  7  8  1  0  0  0
  8  9  1  0  0  0
  8 53  1  0  0  0
  9 10  1  0  0  0
  9 52  1  0  0  0
 10 11  1  0  0  0
 10 40  1  0  0  0
 11 39  1  0  0  0
 12 40  1  0  0  0
 12 41  1  0  0  0
 12  7  1  0  0  0
 13 41  1  0  0  0
 13 14  1  0  0  0
 14 15  1  0  0  0
 14 44  1  0  0  0
 15 42  1  0  0  0
 16 42  1  0  0  0
 17 16  1  0  0  0
 18 44  1  0  0  0
 18 19  1  0  0  0
 18 47  1  0  0  0
 19 20  1  0  0  0
 19 46  1  0  0  0
 20 45  1  0  0  0
 20 13  1  0  0  0
 21 47  1  0  0  0
 21 22  1  0  0  0
 22 23  1  0  0  0
 23 24  1  0  0  0
 23 51  1  0  0  0
 24 25  1  0  0  0
 25 26  1  0  0  0
 26 27  1  0  0  0
 27 28  1  0  0  0
 28 29  1  0  0  0
 29 30  1  0  0  0
 30 31  1  0  0  0
 31 32  1  0  0  0
 32 33  1  0  0  0
 33 34  1  0  0  0
 34 35  1  0  0  0
 35 36  1  0  0  0
 35 50  1  0  0  0
 36 49  1  0  0  0
  6 37  2  0  0  0
 16 43  2  0  0  0
 36 48  2  0  0  0
M  END
> <rmsd>
0.765334129

$$$$
MolPort-044-637-484 MCULE-6012940007 PubChem-132331218


 54 55  0  0  0  0  0  0  0  0999 V2000
    2.6757    2.4014   62.5739 C   0  0  0  0  0
    4.0312    2.9273   62.1461 C   0  0  0  0  0
    4.3154    4.2256   62.8767 C   0  0  0  0  0
    5.6559    4.8004   62.4480 C   0  0  0  0  0
    5.4967    5.6635   61.2037 C   0  0  0  0  0
    5.4797    4.8332   59.9572 C   0  0  0  0  0
    3.1730    5.5341   59.3878 C   0  0  0  0  0
    1.9618    4.7646   58.8619 C   0  0  0  0  0
    0.7023    5.6330   58.8739 C   0  0  0  0  0
    1.0199    7.0038   58.2556 C   0  0  0  0  0
   -0.2052    7.9105   58.2507 C   0  0  0  0  0
    3.2353    6.8956   58.6796 C   0  0  0  0  0
    4.9013    8.1782   57.9546 C   0  0  0  0  0
    6.2072    7.4459   57.5985 C   0  0  0  0  0
    5.9384    6.2398   56.7124 C   0  0  0  0  0
    7.1166    4.2280   55.9326 C   0  0  0  0  0
    8.3508    3.4021   55.9198 C   0  0  0  0  0
    6.7293    9.2730   56.2030 C   0  0  0  0  0
    5.8402   10.2763   56.9468 C   0  0  0  0  0
    5.1744    9.6608   58.1753 C   0  0  0  0  0
    6.8965    8.9101   54.0188 C   0  0  0  0  0
    6.2062    9.7547   52.9588 C   0  0  0  0  0
    4.9911    9.0364   52.3860 C   0  0  0  0  0
    4.1620    9.9796   51.5198 C   0  0  0  0  0
    4.8979   10.3902   50.2487 C   0  0  0  0  0
    4.0909   11.4215   49.4748 C   0  0  0  0  0
    2.8560   10.7995   48.8415 C   0  0  0  0  0
    3.2393    9.9812   47.6190 C   0  0  0  0  0
    1.9994    9.3856   46.9697 C   0  0  0  0  0
    1.1521   10.4553   46.2908 C   0  0  0  0  0
    1.6648   10.7709   44.8892 C   0  0  0  0  0
    2.9050   11.6588   44.9198 C   0  0  0  0  0
    2.5883   13.0660   45.4108 C   0  0  0  0  0
    1.9086   13.8921   44.3273 C   0  0  0  0  0
    0.3988   13.6704   44.3352 C   0  0  0  0  0
   -0.2686   14.2227   43.1117 C   0  0  0  0  0
    6.5052    4.1757   59.6401 O   0  0  0  0  0
    4.3541    4.7817   59.1306 O   0  0  0  0  0
   -0.6226    8.1806   59.5556 O   0  0  0  0  0
    2.0668    7.6251   58.9615 O   0  0  0  0  0
    4.3501    7.6194   59.1135 O   0  0  0  0  0
    7.0913    5.4131   56.6674 O   0  0  0  0  0
    6.1071    3.8468   55.2816 O   0  0  0  0  0
    7.2391    8.2653   57.0612 O   0  0  0  0  0
    3.9810   10.3336   58.4422 O   0  0  0  0  0
    6.6033   11.3763   57.3370 O   0  0  0  0  0
    6.0468    8.7222   55.1116 O   0  0  0  0  0
    0.3832   14.8598   42.2411 O   0  0  0  0  0
   -1.6317   14.0236   42.9323 O   0  0  0  0  0
   -0.1575   14.2546   45.4744 O   0  0  0  0  0
    5.3852    7.9151   51.6523 O   0  0  0  0  0
   -0.3020    4.9983   58.1398 O   0  0  0  0  0
    1.7551    3.6216   59.6358 O   0  0  0  0  0
    6.1572    5.5892   63.4810 O   0  0  0  0  0
  1  2  1  0  0  0
  2  3  1  0  0  0
  3  4  1  0  0  0
  4  5  1  0  0  0
  4 54  1  0  0  0
  5  6  1  0  0  0
  6 38  1  0  0  0
  7 38  1  0  0  0
  7  8  1  0  0  0
  8  9  1  0  0  0
  8 53  1  0  0  0
  9 10  1  0  0  0
  9 52  1  0  0  0
 10 11  1  0  0  0
 10 40  1  0  0  0
 11 39  1  0  0  0
 12 40  1  0  0  0
 12 41  1  0  0  0
 12  7  1  0  0  0
 13 41  1  0  0  0
 13 14  1  0  0  0
 14 15  1  0  0  0
 14 44  1  0  0  0
 15 42  1  0  0  0
 16 42  1  0  0  0
 17 16  1  0  0  0
 18 44  1  0  0  0
 18 19  1  0  0  0
 18 47  1  0  0  0
 19 20  1  0  0  0
 19 46  1  0  0  0
 20 45  1  0  0  0
 20 13  1  0  0  0
 21 47  1  0  0  0
 21 22  1  0  0  0
 22 23  1  0  0  0
 23 24  1  0  0  0
 23 51  1  0  0  0
 24 25  1  0  0  0
 25 26  1  0  0  0
 26 27  1  0  0  0
 27 28  1  0  0  0
 28 29  1  0  0  0
 29 30  1  0  0  0
 30 31  1  0  0  0
 31 32  1  0  0  0
 32 33  1  0  0  0
 33 34  1  0  0  0
 34 35  1  0  0  0
 35 36  1  0  0  0
 35 50  1  0  0  0
 36 49  1  0  0  0
  6 37  2  0  0  0
 16 43  2  0  0  0
 36 48  2  0  0  0
M  END
> <rmsd>
0.851925313

$$$$
MolPort-001-741-753 MCULE-8296069574 PubChem-461535


 87 97  0  0  0  0  0  0  0  0999 V2000
    5.3959    0.9982   56.3971 O   0  0  0  0  0
    6.9409    1.3410   58.5575 O   0  0  0  0  0
    7.3751    4.6090   57.7373 O   0  0  0  0  0
    5.7993    3.8260   55.4513 O   0  0  0  0  0
    3.5958    3.1376   55.5772 O   0  0  0  0  0
    1.9525    7.5595   58.9363 O   0  0  0  0  0
    3.5611    5.7207   57.3881 O   0  0  0  0  0
    3.2853    5.9998   55.1159 O   0  0  0  0  0
    2.0418    8.4799   54.7792 O   0  0  0  0  0
   -1.6012    6.3501   54.3892 O   0  0  0  0  0
   -1.9093    8.6269   54.2140 O   0  0  0  0  0
    0.3568    6.7100   52.3893 O   0  0  0  0  0
    1.7367    6.5435   50.5282 O   0  0  0  0  0
   -1.0755   13.5272   43.5823 O   0  0  0  0  0
   -2.1469    9.3777   44.0346 O   0  0  0  0  0
    2.9896    4.9157   52.3143 O   0  0  0  0  0
    3.5444    2.7338   51.0570 O   0  0  0  0  0
    6.0951    7.8580   51.8121 O   0  0  0  0  0
    5.2704    5.2711   52.6271 O   0  0  0  0  0
    8.1774    3.8129   51.7142 O   0  0  0  0  0
    5.9271    2.4511   52.3913 O   0  0  0  0  0
    1.8282    3.5756   59.7934 O   0  0  0  0  0
    1.8882    1.9338   57.4016 O   0  0  0  0  0
    2.7826   -0.8755   54.7631 O   0  0  0  0  0
    6.2676   -1.6599   55.0913 O   0  0  0  0  0
    3.8312   -0.3582   57.4915 O   0  0  0  0  0
    3.3823   -3.0419   56.7260 O   0  0  0  0  0
    5.1305    2.1312   57.1829 C   0  0  0  0  0
    6.3564    2.4888   58.0246 C   0  0  0  0  0
    7.3912    3.3045   57.2609 C   0  0  0  0  0
    7.0748    3.3048   55.7596 C   0  0  0  0  0
    8.1449    4.0303   54.9673 C   0  0  0  0  0
    4.7717    3.3502   56.3114 C   0  0  0  0  0
    2.5367    3.8980   56.1392 C   0  0  0  0  0
    1.8998    3.3311   57.4151 C   0  0  0  0  0
    2.5956    3.8514   58.6659 C   0  0  0  0  0
    2.8609    5.3692   58.5680 C   0  0  0  0  0
    1.5993    6.2235   58.7684 C   0  0  0  0  0
    2.7569    5.4152   56.2734 C   0  0  0  0  0
    2.2185    6.1593   54.2184 C   0  0  0  0  0
    1.2881    7.3215   54.5957 C   0  0  0  0  0
    0.2367    7.5772   53.4951 C   0  0  0  0  0
   -1.1357    7.4807   54.0597 C   0  0  0  0  0
    1.6553    6.9026   51.8819 C   0  0  0  0  0
    2.3755    7.6316   49.8869 C   0  0  0  0  0
    1.4776    8.8943   49.6895 C   0  0  0  0  0
    0.0039    8.5159   49.7652 C   0  0  0  0  0
    1.7679    9.8375   50.8383 C   0  0  0  0  0
    1.8150    9.5962   48.3450 C   0  0  0  0  0
    1.1764   10.9737   48.1437 C   0  0  0  0  0
   -0.3095   10.8404   47.8421 C   0  0  0  0  0
   -0.6348    9.9713   46.6131 C   0  0  0  0  0
   -2.0670    9.5150   46.8715 C   0  0  0  0  0
   -0.5698   10.8074   45.2813 C   0  0  0  0  0
    0.8028   11.4742   45.1491 C   0  0  0  0  0
   -1.6228   11.9550   45.3244 C   0  0  0  0  0
   -1.9852   12.5273   43.9339 C   0  0  0  0  0
   -2.0485   11.4303   42.8532 C   0  0  0  0  0
   -2.9418   10.3057   43.3381 C   0  0  0  0  0
   -0.8221    9.8853   44.0242 C   0  0  0  0  0
   -0.7049   10.7536   42.7794 C   0  0  0  0  0
   -0.5586    9.9823   41.4629 C   0  0  0  0  0
   -0.6149   10.9313   40.2589 C   0  0  0  0  0
   -1.2313   10.1914   39.0948 C   0  0  0  0  0
    0.7970   11.3342   39.8899 C   0  0  0  0  0
   -1.4284   12.2083   40.5157 C   0  0  0  0  0
   -2.5623   11.9796   41.5088 C   0  0  0  0  0
    0.1738    8.7157   44.0269 C   0  0  0  0  0
    0.0233    7.8495   45.2762 C   0  0  0  0  0
    0.2338    8.6710   46.5546 C   0  0  0  0  0
    1.6914    8.6777   47.0959 C   0  0  0  0  0
    2.6732    9.1906   46.0509 C   0  0  0  0  0
    2.0781    7.2212   47.4255 C   0  0  0  0  0
    3.0467    7.1368   48.6020 C   0  0  0  0  0
    2.7100    6.2160   52.7614 C   0  0  0  0  0
    4.2514    4.9810   51.6903 C   0  0  0  0  0
    4.5434    3.7064   50.8701 C   0  0  0  0  0
    5.9298    3.1290   51.1711 C   0  0  0  0  0
    6.9684    4.2636   51.1716 C   0  0  0  0  0
    6.4849    5.5040   51.9520 C   0  0  0  0  0
    6.4453    6.7390   51.0564 C   0  0  0  0  0
    4.1716    0.3255   56.2941 C   0  0  0  0  0
    4.1174   -0.5875   55.0605 C   0  0  0  0  0
    4.9022   -1.8947   55.2803 C   0  0  0  0  0
    4.6578   -2.4774   56.6785 C   0  0  0  0  0
    4.7920   -1.3691   57.7226 C   0  0  0  0  0
    4.6215   -1.9358   59.1288 C   0  0  0  0  0
 28  1  1  0  0  0
 28 29  1  0  0  0
 29  2  1  0  0  0
 29 30  1  0  0  0
 30  3  1  0  0  0
 30 31  1  0  0  0
 31 32  1  0  0  0
 31  4  1  0  0  0
 33  4  1  0  0  0
 33  5  1  0  0  0
 33 28  1  0  0  0
 34  5  1  0  0  0
 34 35  1  0  0  0
 35 36  1  0  0  0
 35 23  1  0  0  0
 36 37  1  0  0  0
 36 22  1  0  0  0
 37 38  1  0  0  0
 37  7  1  0  0  0
 38  6  1  0  0  0
 39  7  1  0  0  0
 39  8  1  0  0  0
 39 34  1  0  0  0
 40  8  1  0  0  0
 40 41  1  0  0  0
 41  9  1  0  0  0
 41 42  1  0  0  0
 42 43  1  0  0  0
 42 12  1  0  0  0
 43 11  1  0  0  0
 44 12  1  0  0  0
 44 13  1  0  0  0
 44 75  1  0  0  0
 45 13  1  0  0  0
 45 46  1  0  0  0
 46 47  1  0  0  0
 46 48  1  0  0  0
 46 49  1  0  0  0
 49 50  1  0  0  0
 50 51  1  0  0  0
 51 52  1  0  0  0
 52 53  1  0  0  0
 52 54  1  0  0  0
 54 55  1  0  0  0
 54 56  1  0  0  0
 56 57  1  0  0  0
 57 14  1  0  0  0
 57 58  1  0  0  0
 58 59  1  0  0  0
 59 15  1  0  0  0
 60 15  1  0  0  0
 60 61  1  0  0  0
 60 68  1  0  0  0
 60 54  1  0  0  0
 61 62  1  0  0  0
 61 58  1  0  0  0
 62 63  1  0  0  0
 63 64  1  0  0  0
 63 65  1  0  0  0
 63 66  1  0  0  0
 66 67  1  0  0  0
 67 58  1  0  0  0
 68 69  1  0  0  0
 69 70  1  0  0  0
 70 71  1  0  0  0
 70 52  1  0  0  0
 71 72  1  0  0  0
 71 73  1  0  0  0
 71 49  1  0  0  0
 73 74  1  0  0  0
 74 45  1  0  0  0
 75 16  1  0  0  0
 75 40  1  0  0  0
 76 16  1  0  0  0
 76 77  1  0  0  0
 76 19  1  0  0  0
 77 17  1  0  0  0
 77 78  1  0  0  0
 78 79  1  0  0  0
 78 21  1  0  0  0
 79 80  1  0  0  0
 79 20  1  0  0  0
 80 81  1  0  0  0
 80 19  1  0  0  0
 81 18  1  0  0  0
 82  1  1  0  0  0
 82 83  1  0  0  0
 82 26  1  0  0  0
 83 24  1  0  0  0
 83 84  1  0  0  0
 84 25  1  0  0  0
 84 85  1  0  0  0
 85 86  1  0  0  0
 85 27  1  0  0  0
 86 87  1  0  0  0
 86 26  1  0  0  0
 43 10  2  0  0  0
M  END
> <rmsd>
0.86646235

$$$$
MolPort-045-901-149 PubChem-136271921


 91 96  0  0  0  0  0  0  0  0999 V2000
    6.7685    1.8099   67.3908 C   0  0  0  0  0
    7.6707    1.3809   66.2530 C   0  0  0  0  0
    6.9574    1.5916   64.9370 C   0  0  0  0  0
    7.8885    1.2063   63.7999 C   0  0  0  0  0
    8.8360    2.3683   63.5032 C   0  0  0  0  0
    9.8260    1.9734   62.4186 C   0  0  0  0  0
    9.1608    1.8950   61.0502 C   0  0  0  0  0
    8.9284    3.2818   60.4757 C   0  0  0  0  0
    7.4589    3.6237   60.5807 C   0  0  0  0  0
    7.1792    4.9835   59.9737 C   0  0  0  0  0
    6.6381    4.8452   58.5608 C   0  0  0  0  0
    7.7545    5.0110   57.5371 C   0  0  0  0  0
    8.4188    3.6779   57.2653 C   0  0  0  0  0
    9.3515    3.7761   56.0664 C   0  0  0  0  0
    8.5712    3.8468   54.7674 C   0  0  0  0  0
    7.9821    2.4710   54.4613 C   0  0  0  0  0
    7.0118    2.5303   53.2968 C   0  0  0  0  0
    5.7883    3.3099   53.6588 C   0  0  0  0  0
    4.3132    5.2665   53.0615 C   0  0  0  0  0
    2.8571    7.0109   52.9006 C   0  0  0  0  0
    3.7133    6.1826   52.0799 C   0  0  0  0  0
    3.8917    6.1925   50.7626 C   0  0  0  0  0
    3.1873    7.1362   49.9009 C   0  0  0  0  0
    3.4242    7.1719   48.5896 C   0  0  0  0  0
    2.7381    8.1045   47.6798 C   0  0  0  0  0
    1.8040    8.9557   48.0980 C   0  0  0  0  0
    1.1249    9.8969   47.1907 C   0  0  0  0  0
    0.1144   10.7751   47.5310 C   0  0  0  0  0
    1.3301   10.1437   45.8424 C   0  0  0  0  0
    2.6452    9.9656   43.7014 C   0  0  0  0  0
    3.3866    9.0904   42.7517 C   0  0  0  0  0
    2.5221    7.8987   42.3192 C   0  0  0  0  0
    1.4053    8.3068   41.3730 C   0  0  0  0  0
    1.9409    8.6534   40.0006 C   0  0  0  0  0
    2.1276   10.1489   39.8526 C   0  0  0  0  0
    1.4643   10.6001   38.5728 C   0  0  0  0  0
    1.5997   12.1058   38.3600 C   0  0  0  0  0
    3.0308   12.5211   38.0312 C   0  0  0  0  0
    3.4545   12.0230   36.6587 C   0  0  0  0  0
    4.4714   10.9074   36.8136 C   0  0  0  0  0
    4.8531   10.3967   35.4401 C   0  0  0  0  0
    5.9024    9.3037   35.5920 C   0  0  0  0  0
    6.2623    8.7334   34.2389 C   0  0  0  0  0
    7.3182    7.6486   34.4256 C   0  0  0  0  0
    7.5641    6.9307   33.1126 C   0  0  0  0  0
    8.6251    5.8537   33.2760 C   0  0  0  0  0
    8.0543    4.6675   34.0262 C   0  0  0  0  0
   -1.2580   12.5111   46.3231 C   0  0  0  0  0
   -2.0726   12.8585   47.3978 C   0  0  0  0  0
   -3.0547   13.8370   47.2478 C   0  0  0  0  0
   -3.2266   14.4928   46.0145 C   0  0  0  0  0
   -5.3502   15.6329   46.6180 C   0  0  0  0  0
   -5.9797   16.8862   46.6628 C   0  0  0  0  0
   -7.1783   17.0425   47.3554 C   0  0  0  0  0
   -7.7704   15.9485   47.9989 C   0  0  0  0  0
   -7.1516   14.6922   47.9658 C   0  0  0  0  0
   -5.9471   14.5350   47.2798 C   0  0  0  0  0
   -2.3949   14.1607   44.9382 C   0  0  0  0  0
   -1.4394   13.1595   45.0908 C   0  0  0  0  0
    2.3113    7.0792   55.4117 C   0  0  0  0  0
    1.6718    8.3231   55.3787 C   0  0  0  0  0
    1.0201    8.8140   56.5108 C   0  0  0  0  0
    0.9843    8.0714   57.7020 C   0  0  0  0  0
   -0.0916    9.8549   59.0705 C   0  0  0  0  0
   -1.2234   10.1090   59.8554 C   0  0  0  0  0
   -1.6087   11.4231   60.1386 C   0  0  0  0  0
   -0.8427   12.4915   59.6605 C   0  0  0  0  0
    0.2878   12.2421   58.8890 C   0  0  0  0  0
    0.6674   10.9339   58.5899 C   0  0  0  0  0
    1.6174    6.8138   57.7305 C   0  0  0  0  0
    2.2885    6.3314   56.5986 C   0  0  0  0  0
    5.1760    3.0759   54.7379 O   0  0  0  0  0
    2.1921    8.0172   52.5306 O   0  0  0  0  0
   -0.4220   10.9324   48.8074 O   0  0  0  0  0
    2.3932   11.1588   43.3683 O   0  0  0  0  0
   -4.1778   15.5101   45.8673 O   0  0  0  0  0
   -1.5956   14.1630   42.2453 O   0  0  0  0  0
   -3.9949   14.9013   42.9108 O   0  0  0  0  0
   -2.1221   16.3832   43.4785 O   0  0  0  0  0
    0.2705    8.5272   58.8313 O   0  0  0  0  0
   -0.0175    5.4480   59.5620 O   0  0  0  0  0
    2.3550    4.5730   59.0073 O   0  0  0  0  0
    2.1872    6.6289   60.3289 O   0  0  0  0  0
    5.3048    4.2873   52.7461 N   0  0  0  0  0
    3.8803    5.4957   54.2684 N   0  0  0  0  0
    2.9599    6.5534   54.2441 N   0  0  0  0  0
   -0.2584   11.4840   46.4337 N   0  0  0  0  0
    0.4875   11.0981   45.4113 N   0  0  0  0  0
    2.2926    9.4857   45.0065 N   0  0  0  0  0
   -2.5679   14.9542   43.3755 S   0  0  0  0  0
    1.5722    5.8460   59.2002 S   0  0  0  0  0
  1  2  1  0  0  0
  2  3  1  0  0  0
  3  4  1  0  0  0
  4  5  1  0  0  0
  5  6  1  0  0  0
  6  7  1  0  0  0
  7  8  1  0  0  0
  8  9  1  0  0  0
  9 10  1  0  0  0
 10 11  1  0  0  0
 11 12  1  0  0  0
 12 13  1  0  0  0
 13 14  1  0  0  0
 14 15  1  0  0  0
 15 16  1  0  0  0
 16 17  1  0  0  0
 17 18  1  0  0  0
 18 84  1  0  0  0
 20 21  1  0  0  0
 21 19  1  0  0  0
 22 23  1  0  0  0
 24 25  1  0  0  0
 26 27  1  0  0  0
 28 74  1  0  0  0
 28 87  1  0  0  0
 29 89  1  0  0  0
 29 27  1  0  0  0
 31 30  1  0  0  0
 31 32  1  0  0  0
 32 33  1  0  0  0
 33 34  1  0  0  0
 34 35  1  0  0  0
 35 36  1  0  0  0
 36 37  1  0  0  0
 37 38  1  0  0  0
 38 39  1  0  0  0
 39 40  1  0  0  0
 40 41  1  0  0  0
 41 42  1  0  0  0
 42 43  1  0  0  0
 43 44  1  0  0  0
 44 45  1  0  0  0
 45 46  1  0  0  0
 46 47  1  0  0  0
 49 50  1  0  0  0
 51 76  1  0  0  0
 51 58  1  0  0  0
 52 76  1  0  0  0
 53 54  1  0  0  0
 55 56  1  0  0  0
 57 52  1  0  0  0
 59 48  1  0  0  0
 61 62  1  0  0  0
 63 80  1  0  0  0
 63 70  1  0  0  0
 64 80  1  0  0  0
 65 66  1  0  0  0
 67 68  1  0  0  0
 69 64  1  0  0  0
 71 60  1  0  0  0
 84 19  1  0  0  0
 86 85  1  0  0  0
 86 20  1  0  0  0
 86 60  1  0  0  0
 87 88  1  0  0  0
 87 48  1  0  0  0
 89 30  1  0  0  0
 90 58  1  0  0  0
 90 77  1  0  0  0
 91 70  1  0  0  0
 91 81  1  0  0  0
 18 72  2  0  0  0
 19 85  2  0  0  0
 20 73  2  0  0  0
 21 22  2  0  0  0
 23 24  2  0  0  0
 25 26  2  0  0  0
 27 28  2  0  0  0
 29 88  2  0  0  0
 30 75  2  0  0  0
 48 49  2  0  0  0
 50 51  2  0  0  0
 52 53  2  0  0  0
 54 55  2  0  0  0
 56 57  2  0  0  0
 58 59  2  0  0  0
 60 61  2  0  0  0
 62 63  2  0  0  0
 64 65  2  0  0  0
 66 67  2  0  0  0
 68 69  2  0  0  0
 70 71  2  0  0  0
 90 78  2  0  0  0
 90 79  2  0  0  0
 91 82  2  0  0  0
 91 83  2  0  0  0
M  END
> <rmsd>
0.732942879

$$$$
MolPort-045-901-149 PubChem-136271921


 91 96  0  0  0  0  0  0  0  0999 V2000
    5.7567    3.2835   68.3870 C   0  0  0  0  0
    6.8703    2.9215   67.4270 C   0  0  0  0  0
    6.3339    2.9100   66.0138 C   0  0  0  0  0
    7.4691    2.5957   65.0540 C   0  0  0  0  0
    8.2630    3.8708   64.7712 C   0  0  0  0  0
    9.4495    3.5606   63.8720 C   0  0  0  0  0
    9.0116    3.2687   62.4423 C   0  0  0  0  0
    8.6588    4.5501   61.7068 C   0  0  0  0  0
    7.1552    4.6538   61.5818 C   0  0  0  0  0
    6.7650    5.8984   60.8107 C   0  0  0  0  0
    6.4640    5.5646   59.3594 C   0  0  0  0  0
    7.6802    5.8313   58.4812 C   0  0  0  0  0
    8.5711    4.6080   58.4339 C   0  0  0  0  0
    9.6437    4.7646   57.3653 C   0  0  0  0  0
    9.0605    4.6059   55.9738 C   0  0  0  0  0
    8.7376    3.1328   55.7309 C   0  0  0  0  0
    7.9507    2.9421   54.4482 C   0  0  0  0  0
    6.5837    3.5365   54.5655 C   0  0  0  0  0
    4.9333    5.1730   53.5864 C   0  0  0  0  0
    3.2695    6.6376   53.0611 C   0  0  0  0  0
    4.3520    5.8998   52.4476 C   0  0  0  0  0
    4.7180    5.8369   51.1712 C   0  0  0  0  0
    4.0129    6.5830   50.1342 C   0  0  0  0  0
    4.4312    6.5556   48.8688 C   0  0  0  0  0
    3.7528    7.2900   47.7878 C   0  0  0  0  0
    2.6496    8.0065   47.9919 C   0  0  0  0  0
    1.9763    8.7508   46.9134 C   0  0  0  0  0
    0.8058    9.4753   47.0277 C   0  0  0  0  0
    2.3371    8.9229   45.5864 C   0  0  0  0  0
    3.9634    8.7974   43.6668 C   0  0  0  0  0
    4.9597    7.9848   42.9155 C   0  0  0  0  0
    4.3582    6.6378   42.4932 C   0  0  0  0  0
    3.3434    6.7830   41.3716 C   0  0  0  0  0
    4.0156    7.1055   40.0546 C   0  0  0  0  0
    3.9936    8.5955   39.7844 C   0  0  0  0  0
    3.4644    8.8316   38.3895 C   0  0  0  0  0
    3.4002   10.3181   38.0476 C   0  0  0  0  0
    4.7846   10.9354   37.8715 C   0  0  0  0  0
    5.4752   10.4088   36.6237 C   0  0  0  0  0
    6.6154    9.4902   37.0221 C   0  0  0  0  0
    7.2670    8.9442   35.7691 C   0  0  0  0  0
    8.4358    8.0529   36.1667 C   0  0  0  0  0
    9.0722    7.4463   34.9367 C   0  0  0  0  0
   10.2412    6.5668   35.3686 C   0  0  0  0  0
   10.7825    5.7995   34.1778 C   0  0  0  0  0
   11.9587    4.9267   34.5867 C   0  0  0  0  0
   11.4701    3.7246   35.3691 C   0  0  0  0  0
   -0.6214   10.8644   45.4819 C   0  0  0  0  0
   -1.6278   11.1558   46.3993 C   0  0  0  0  0
   -2.7139   11.9458   46.0239 C   0  0  0  0  0
   -2.8004   12.4672   44.7197 C   0  0  0  0  0
   -5.1372   13.2873   44.9201 C   0  0  0  0  0
   -5.9488   14.4203   44.7561 C   0  0  0  0  0
   -7.2457   14.4313   45.2649 C   0  0  0  0  0
   -7.7532   13.3082   45.9300 C   0  0  0  0  0
   -6.9535   12.1714   46.1044 C   0  0  0  0  0
   -5.6517   12.1610   45.6030 C   0  0  0  0  0
   -1.7794   12.1936   43.8014 C   0  0  0  0  0
   -0.7163   11.3772   44.1781 C   0  0  0  0  0
    2.3577    6.8096   55.4585 C   0  0  0  0  0
    1.5492    7.9257   55.2174 C   0  0  0  0  0
    0.6721    8.3893   56.1987 C   0  0  0  0  0
    0.5748    7.7452   57.4426 C   0  0  0  0  0
   -0.9472    9.4289   58.4721 C   0  0  0  0  0
   -2.2072    9.5541   59.0711 C   0  0  0  0  0
   -2.8240   10.8052   59.1685 C   0  0  0  0  0
   -2.1667   11.9445   58.6920 C   0  0  0  0  0
   -0.9108   11.8247   58.1057 C   0  0  0  0  0
   -0.2980   10.5772   57.9912 C   0  0  0  0  0
    1.3798    6.6142   57.6798 C   0  0  0  0  0
    2.2746    6.1622   56.7004 C   0  0  0  0  0
    5.8624    3.2895   55.5719 O   0  0  0  0  0
    2.5214    7.4898   52.5080 O   0  0  0  0  0
    0.0706    9.6408   48.1998 O   0  0  0  0  0
    3.5853    9.9039   43.1861 O   0  0  0  0  0
   -3.8626   13.3005   44.3472 O   0  0  0  0  0
   -0.6038   12.1185   41.2513 O   0  0  0  0  0
   -3.1586   12.5032   41.5164 O   0  0  0  0  0
   -1.6350   14.3111   42.1767 O   0  0  0  0  0
   -0.3574    8.1639   58.4164 O   0  0  0  0  0
   -0.2802    5.1449   59.4055 O   0  0  0  0  0
    2.2527    4.6300   59.2598 O   0  0  0  0  0
    1.5840    6.7267   60.3362 O   0  0  0  0  0
    6.0969    4.3480   53.5041 N   0  0  0  0  0
    4.2986    5.4208   54.6964 N   0  0  0  0  0
    3.2424    6.3085   54.4453 N   0  0  0  0  0
    0.4949   10.0266   45.8256 N   0  0  0  0  0
    1.4322    9.6902   44.9545 N   0  0  0  0  0
    3.5000    8.3687   44.9549 N   0  0  0  0  0
   -1.8396   12.8248   42.1584 S   0  0  0  0  0
    1.2666    5.7687   59.2195 S   0  0  0  0  0
  1  2  1  0  0  0
  2  3  1  0  0  0
  3  4  1  0  0  0
  4  5  1  0  0  0
  5  6  1  0  0  0
  6  7  1  0  0  0
  7  8  1  0  0  0
  8  9  1  0  0  0
  9 10  1  0  0  0
 10 11  1  0  0  0
 11 12  1  0  0  0
 12 13  1  0  0  0
 13 14  1  0  0  0
 14 15  1  0  0  0
 15 16  1  0  0  0
 16 17  1  0  0  0
 17 18  1  0  0  0
 18 84  1  0  0  0
 20 21  1  0  0  0
 21 19  1  0  0  0
 22 23  1  0  0  0
 24 25  1  0  0  0
 26 27  1  0  0  0
 28 74  1  0  0  0
 28 87  1  0  0  0
 29 89  1  0  0  0
 29 27  1  0  0  0
 31 30  1  0  0  0
 31 32  1  0  0  0
 32 33  1  0  0  0
 33 34  1  0  0  0
 34 35  1  0  0  0
 35 36  1  0  0  0
 36 37  1  0  0  0
 37 38  1  0  0  0
 38 39  1  0  0  0
 39 40  1  0  0  0
 40 41  1  0  0  0
 41 42  1  0  0  0
 42 43  1  0  0  0
 43 44  1  0  0  0
 44 45  1  0  0  0
 45 46  1  0  0  0
 46 47  1  0  0  0
 49 50  1  0  0  0
 51 76  1  0  0  0
 51 58  1  0  0  0
 52 76  1  0  0  0
 53 54  1  0  0  0
 55 56  1  0  0  0
 57 52  1  0  0  0
 59 48  1  0  0  0
 61 62  1  0  0  0
 63 80  1  0  0  0
 63 70  1  0  0  0
 64 80  1  0  0  0
 65 66  1  0  0  0
 67 68  1  0  0  0
 69 64  1  0  0  0
 71 60  1  0  0  0
 84 19  1  0  0  0
 86 85  1  0  0  0
 86 20  1  0  0  0
 86 60  1  0  0  0
 87 88  1  0  0  0
 87 48  1  0  0  0
 89 30  1  0  0  0
 90 58  1  0  0  0
 90 77  1  0  0  0
 91 70  1  0  0  0
 91 81  1  0  0  0
 18 72  2  0  0  0
 19 85  2  0  0  0
 20 73  2  0  0  0
 21 22  2  0  0  0
 23 24  2  0  0  0
 25 26  2  0  0  0
 27 28  2  0  0  0
 29 88  2  0  0  0
 30 75  2  0  0  0
 48 49  2  0  0  0
 50 51  2  0  0  0
 52 53  2  0  0  0
 54 55  2  0  0  0
 56 57  2  0  0  0
 58 59  2  0  0  0
 60 61  2  0  0  0
 62 63  2  0  0  0
 64 65  2  0  0  0
 66 67  2  0  0  0
 68 69  2  0  0  0
 70 71  2  0  0  0
 90 78  2  0  0  0
 90 79  2  0  0  0
 91 82  2  0  0  0
 91 83  2  0  0  0
M  END
> <rmsd>
0.836829305

$$$$
MolPort-019-937-462 253389050 MCULE-8805656232 PubChem-51136532 ZINC000253389050


 63 69  0  0  0  0  0  0  0  0999 V2000
    4.2865    7.2672   55.6508 C   0  0  0  0  0
    4.0485    5.9180   57.7093 C   0  0  0  0  0
    4.7586    4.5594   57.6824 C   0  0  0  0  0
    5.2620    3.2867   55.9465 C   0  0  0  0  0
    5.0958    1.8062   55.6062 C   0  0  0  0  0
    6.3540    1.3196   54.8846 C   0  0  0  0  0
    6.7132    2.2561   53.7243 C   0  0  0  0  0
    6.5938    3.7401   54.1166 C   0  0  0  0  0
    7.8068    4.2455   54.8925 C   0  0  0  0  0
    4.7600    3.8590   59.0486 C   0  0  0  0  0
    3.5279    4.1899   59.8992 C   0  0  0  0  0
    3.0086    5.6171   59.6651 C   0  0  0  0  0
    2.6200    6.2458   60.9885 C   0  0  0  0  0
    2.9599    7.0480   55.2591 C   0  0  0  0  0
    2.4964    7.5149   54.0274 C   0  0  0  0  0
    0.6871    7.7408   52.5588 C   0  0  0  0  0
   -0.7513    7.4496   52.3294 C   0  0  0  0  0
   -1.3699    6.4339   53.0765 C   0  0  0  0  0
   -2.7252    6.1404   52.8966 C   0  0  0  0  0
   -3.4787    6.8622   51.9692 C   0  0  0  0  0
   -2.8794    7.8835   51.2274 C   0  0  0  0  0
   -1.5242    8.1752   51.4077 C   0  0  0  0  0
    1.4901    8.4237   51.6160 C   0  0  0  0  0
    1.6416    9.0041   49.1918 C   0  0  0  0  0
    1.7359    7.6319   48.4919 C   0  0  0  0  0
    1.1660    7.6555   47.0654 C   0  0  0  0  0
    1.5616    8.9215   46.2937 C   0  0  0  0  0
    1.7938   10.1076   47.2344 C   0  0  0  0  0
    1.5131   11.4287   46.5297 C   0  0  0  0  0
   -0.2399   12.0936   45.2095 C   0  0  0  0  0
    0.5363   13.2924   44.6099 C   0  0  0  0  0
    0.4253   13.2833   43.0832 C   0  0  0  0  0
    0.8485   11.9251   42.5097 C   0  0  0  0  0
    0.7009   10.7898   43.5354 C   0  0  0  0  0
    0.5915    9.4581   42.8172 C   0  0  0  0  0
    2.8448    8.6602   51.9299 C   0  0  0  0  0
    3.3680    8.2021   53.1539 C   0  0  0  0  0
    4.7106    8.4108   53.5506 C   0  0  0  0  0
    5.1509    7.9482   54.7933 C   0  0  0  0  0
    4.7652    6.8312   56.8889 O   0  0  0  0  0
    4.1815    3.7417   56.7091 O   0  0  0  0  0
    4.8849    1.0575   56.7668 O   0  0  0  0  0
    7.4293    1.2385   55.7757 O   0  0  0  0  0
    5.8847    1.9917   52.6314 O   0  0  0  0  0
    5.3666    4.0469   54.7601 O   0  0  0  0  0
    5.9099    4.2193   59.7486 O   0  0  0  0  0
    2.5109    3.2742   59.6274 O   0  0  0  0  0
    1.8503    7.3850   60.7597 O   0  0  0  0  0
    3.9675    6.4159   59.0187 O   0  0  0  0  0
    1.2274    7.3149   53.6983 O   0  0  0  0  0
   -4.8264    6.5797   51.7997 O   0  0  0  0  0
    0.9221    8.8585   50.4080 O   0  0  0  0  0
    3.0665    7.2171   48.4623 O   0  0  0  0  0
   -0.2248    7.5633   47.1207 O   0  0  0  0  0
    2.7196    8.6800   45.5545 O   0  0  0  0  0
    0.1358   11.7151   46.5163 O   0  0  0  0  0
    0.0564   14.4959   45.1367 O   0  0  0  0  0
   -0.8869   13.5674   42.6893 O   0  0  0  0  0
    2.1786   11.9970   42.0897 O   0  0  0  0  0
   -0.4369   10.9768   44.3512 O   0  0  0  0  0
    1.0087    9.9746   48.3911 O   0  0  0  0  0
    3.5753    9.2990   51.1242 O   0  0  0  0  0
    5.6174    9.0747   52.7323 O   0  0  0  0  0
  1 40  1  0  0  0
  2 40  1  0  0  0
  2  3  1  0  0  0
  2 49  1  0  0  0
  3 41  1  0  0  0
  3 10  1  0  0  0
  4 41  1  0  0  0
  4  5  1  0  0  0
  4 45  1  0  0  0
  5 42  1  0  0  0
  5  6  1  0  0  0
  6 43  1  0  0  0
  6  7  1  0  0  0
  7 44  1  0  0  0
  7  8  1  0  0  0
  8  9  1  0  0  0
  8 45  1  0  0  0
 10 46  1  0  0  0
 10 11  1  0  0  0
 11 47  1  0  0  0
 11 12  1  0  0  0
 12 13  1  0  0  0
 12 49  1  0  0  0
 13 48  1  0  0  0
 14 15  1  0  0  0
 15 50  1  0  0  0
 16 50  1  0  0  0
 16 17  1  0  0  0
 18 19  1  0  0  0
 20 51  1  0  0  0
 20 21  1  0  0  0
 22 17  1  0  0  0
 23 52  1  0  0  0
 23 36  1  0  0  0
 24 52  1  0  0  0
 24 25  1  0  0  0
 24 61  1  0  0  0
 25 53  1  0  0  0
 25 26  1  0  0  0
 26 54  1  0  0  0
 26 27  1  0  0  0
 27 55  1  0  0  0
 27 28  1  0  0  0
 28 29  1  0  0  0
 28 61  1  0  0  0
 29 56  1  0  0  0
 30 56  1  0  0  0
 30 31  1  0  0  0
 30 60  1  0  0  0
 31 57  1  0  0  0
 31 32  1  0  0  0
 32 58  1  0  0  0
 32 33  1  0  0  0
 33 59  1  0  0  0
 33 34  1  0  0  0
 34 35  1  0  0  0
 34 60  1  0  0  0
 36 37  1  0  0  0
 37 38  1  0  0  0
 38 63  1  0  0  0
 39  1  1  0  0  0
  1 14  2  0  0  0
 16 23  2  0  0  0
 17 18  2  0  0  0
 19 20  2  0  0  0
 21 22  2  0  0  0
 36 62  2  0  0  0
 37 15  2  0  0  0
 38 39  2  0  0  0
M  END
> <rmsd>
0.795952559

$$$$
MolPort-019-936-743 MCULE-8862563465 PubChem-11399874


 52 57  0  0  0  0  0  0  0  0999 V2000
    2.2076    6.1593   51.7018 C   0  0  0  0  0
    2.9710    5.4633   50.5815 C   0  0  0  0  0
    2.6043    6.1292   49.2873 C   0  0  0  0  0
    3.8315    6.9512   48.9220 C   0  0  0  0  0
    4.4737    5.7084   50.6550 C   0  0  0  0  0
    5.0566    5.6714   52.0428 C   0  0  0  0  0
    5.0694    4.4658   52.7497 C   0  0  0  0  0
    5.6048    4.3914   54.0468 C   0  0  0  0  0
    6.1478    5.5586   54.6379 C   0  0  0  0  0
    6.1194    6.7625   53.9258 C   0  0  0  0  0
    5.5817    6.8219   52.6400 C   0  0  0  0  0
    7.0320    4.4358   56.6972 C   0  0  0  0  0
    8.3876    3.9009   56.2645 C   0  0  0  0  0
    7.0537    4.7935   58.1825 C   0  0  0  0  0
    5.7474    5.3795   58.6209 C   0  0  0  0  0
    4.5556    4.6262   58.5479 C   0  0  0  0  0
    3.3771    5.2404   58.9620 C   0  0  0  0  0
    3.3531    6.5167   59.4230 C   0  0  0  0  0
    4.5053    7.2931   59.5129 C   0  0  0  0  0
    5.7167    6.7070   59.1035 C   0  0  0  0  0
    1.2154    5.7309   59.4874 C   0  0  0  0  0
    5.0640    1.9765   54.2015 C   0  0  0  0  0
    3.4611    8.3674   48.6188 C   0  0  0  0  0
    3.6856    8.8725   47.3362 C   0  0  0  0  0
    3.3562   10.2016   47.0231 C   0  0  0  0  0
    2.7973   11.0277   48.0097 C   0  0  0  0  0
    2.5769   10.5176   49.2990 C   0  0  0  0  0
    2.9068    9.1957   49.6021 C   0  0  0  0  0
    1.7646   13.2208   48.5643 C   0  0  0  0  0
    2.2133   14.6521   48.3381 C   0  0  0  0  0
    0.2472   13.0975   48.3743 C   0  0  0  0  0
   -0.2067   13.3025   46.9582 C   0  0  0  0  0
   -0.9510   14.4392   46.6400 C   0  0  0  0  0
   -1.3979   14.6685   45.3270 C   0  0  0  0  0
   -1.0892   13.7234   44.3163 C   0  0  0  0  0
   -0.3498   12.5833   44.6509 C   0  0  0  0  0
    0.0875   12.3702   45.9583 C   0  0  0  0  0
   -2.2329   14.9450   42.4563 C   0  0  0  0  0
   -2.4799   16.7942   46.0036 C   0  0  0  0  0
    4.1181    9.9472   44.6819 C   0  0  0  0  0
    2.3594    5.0814   48.2195 C   0  0  0  0  0
    4.7577    6.9050   49.9795 O   0  0  0  0  0
    6.7111    5.5871   55.9227 O   0  0  0  0  0
    2.0582    6.8605   59.7562 O   0  0  0  0  0
    2.0989    4.7194   58.9830 O   0  0  0  0  0
    7.3419    3.6622   58.9505 O   0  0  0  0  0
    5.5860    3.1802   54.7481 O   0  0  0  0  0
    2.4771   12.3518   47.6884 O   0  0  0  0  0
   -1.4824   13.8578   42.9763 O   0  0  0  0  0
   -2.1367   15.8187   45.0274 O   0  0  0  0  0
   -0.2135   11.8745   48.8635 O   0  0  0  0  0
    3.5736   10.7203   45.7421 O   0  0  0  0  0
  2  1  1  0  0  0
  2  3  1  0  0  0
  3  4  1  0  0  0
  3 41  1  0  0  0
  4 42  1  0  0  0
  4 23  1  0  0  0
  5 42  1  0  0  0
  5  6  1  0  0  0
  5  2  1  0  0  0
  7  8  1  0  0  0
  8 47  1  0  0  0
  9 10  1  0  0  0
  9 43  1  0  0  0
 11  6  1  0  0  0
 12 43  1  0  0  0
 12 13  1  0  0  0
 12 14  1  0  0  0
 14 15  1  0  0  0
 14 46  1  0  0  0
 16 17  1  0  0  0
 17 45  1  0  0  0
 18 19  1  0  0  0
 18 44  1  0  0  0
 20 15  1  0  0  0
 21 44  1  0  0  0
 21 45  1  0  0  0
 22 47  1  0  0  0
 24 25  1  0  0  0
 25 52  1  0  0  0
 26 27  1  0  0  0
 26 48  1  0  0  0
 28 23  1  0  0  0
 29 48  1  0  0  0
 29 30  1  0  0  0
 29 31  1  0  0  0
 31 32  1  0  0  0
 31 51  1  0  0  0
 33 34  1  0  0  0
 34 50  1  0  0  0
 35 36  1  0  0  0
 35 49  1  0  0  0
 37 32  1  0  0  0
 38 49  1  0  0  0
 39 50  1  0  0  0
 40 52  1  0  0  0
  6  7  2  0  0  0
  8  9  2  0  0  0
 10 11  2  0  0  0
 15 16  2  0  0  0
 17 18  2  0  0  0
 19 20  2  0  0  0
 23 24  2  0  0  0
 25 26  2  0  0  0
 27 28  2  0  0  0
 32 33  2  0  0  0
 34 35  2  0  0  0
 36 37  2  0  0  0
M  END
> <rmsd>
0.573524237

$$$$
MolPort-020-004-573 MolPort-039-140-427 MolPort-047-151-406 MCULE-3371447614 MCULE-6049543998 PubChem-102601985 PubChem-2724369 PubChem-90475149 PubChem-92044452


 48 52  0  0  0  0  0  0  0  0999 V2000
   -2.0763   15.8787   43.1330 N   0  0  0  0  0
   -2.0223   12.2190   46.4234 N   0  0  0  0  0
    5.6627    6.3050   55.7425 N   0  0  0  0  0
    7.8936    6.6618   55.8812 N   0  0  0  0  0
    9.9208    4.4733   55.5676 N   0  0  0  0  0
    7.9770    3.0517   55.3010 N   0  0  0  0  0
    5.7636    3.9187   55.3782 N   0  0  0  0  0
   -1.7295   14.5426   43.4877 C   0  0  0  0  0
   -1.9687   14.0452   44.8530 C   0  0  0  0  0
   -2.2399   14.9336   45.8958 C   0  0  0  0  0
   -2.4076   14.4583   47.1947 C   0  0  0  0  0
   -2.2939   13.0909   47.4400 C   0  0  0  0  0
   -1.8701   12.6785   45.1448 C   0  0  0  0  0
   -1.9061   10.7772   46.6823 C   0  0  0  0  0
   -1.1089    9.5575   48.4428 C   0  0  0  0  0
   -0.2747   10.1523   49.5746 C   0  0  0  0  0
    3.0140    9.7060   54.5823 C   0  0  0  0  0
    2.9412    8.3169   55.2049 C   0  0  0  0  0
    4.2257    6.5324   55.6726 C   0  0  0  0  0
    3.6862    6.9969   57.0118 C   0  0  0  0  0
    3.0605    8.3254   56.7182 C   0  0  0  0  0
    6.6513    7.2221   55.9165 C   0  0  0  0  0
    7.6346    5.3568   55.6709 C   0  0  0  0  0
    8.5104    4.2898   55.5222 C   0  0  0  0  0
    6.6193    2.8624   55.2311 C   0  0  0  0  0
    6.3030    5.1442   55.5923 C   0  0  0  0  0
   -0.2382    9.1952   47.2576 C   0  0  0  0  0
   -0.5474   10.2659   46.2558 C   0  0  0  0  0
   -1.1651   13.8106   42.6364 O   0  0  0  0  0
   -2.1010   10.4806   48.0515 O   0  0  0  0  0
    0.7522    9.2731   49.9407 O   0  0  0  0  0
    1.4782    7.5325   51.9661 O   0  0  0  0  0
   -1.0102    7.9763   51.3851 O   0  0  0  0  0
    0.2109    9.9277   52.6223 O   0  0  0  0  0
    1.6018   11.9886   53.8141 O   0  0  0  0  0
    2.0994   11.2871   51.3620 O   0  0  0  0  0
    2.9311    9.6116   53.1894 O   0  0  0  0  0
    3.9364    7.4794   54.6711 O   0  0  0  0  0
    2.7111    6.0896   57.4288 O   0  0  0  0  0
    4.7502    5.7857   59.3366 O   0  0  0  0  0
    2.5806    4.0868   59.2941 O   0  0  0  0  0
    2.3349    6.5972   59.9706 O   0  0  0  0  0
    3.9294    9.3313   57.1490 O   0  0  0  0  0
   -0.6144    7.9341   46.7879 O   0  0  0  0  0
   -0.6005    9.7630   44.9522 O   0  0  0  0  0
    0.3305    8.6726   51.4749 P   0  0  0  0  0
    1.7249   10.7070   52.7085 P   0  0  0  0  0
    3.0856    5.6774   59.0331 P   0  0  0  0  0
  1  8  1  0  0  0
  3 22  1  0  0  0
  8  9  1  0  0  0
 10 11  1  0  0  0
 12  2  1  0  0  0
 13  9  1  0  0  0
 14  2  1  0  0  0
 14 30  1  0  0  0
 15 30  1  0  0  0
 15 16  1  0  0  0
 15 27  1  0  0  0
 16 31  1  0  0  0
 17 37  1  0  0  0
 18 17  1  0  0  0
 18 38  1  0  0  0
 19 38  1  0  0  0
 19 20  1  0  0  0
 19  3  1  0  0  0
 20 39  1  0  0  0
 20 21  1  0  0  0
 21 43  1  0  0  0
 21 18  1  0  0  0
 23  4  1  0  0  0
 24  5  1  0  0  0
 24  6  1  0  0  0
 25  7  1  0  0  0
 26  3  1  0  0  0
 26 23  1  0  0  0
 27 44  1  0  0  0
 27 28  1  0  0  0
 28 45  1  0  0  0
 28 14  1  0  0  0
 46 31  1  0  0  0
 46 32  1  0  0  0
 46 34  1  0  0  0
 47 34  1  0  0  0
 47 35  1  0  0  0
 47 37  1  0  0  0
 48 39  1  0  0  0
 48 40  1  0  0  0
 48 41  1  0  0  0
  2 13  2  0  0  0
  8 29  2  0  0  0
  9 10  2  0  0  0
 11 12  2  0  0  0
 22  4  2  0  0  0
 23 24  2  0  0  0
 25  6  2  0  0  0
 26  7  2  0  0  0
 46 33  2  0  0  0
 47 36  2  0  0  0
 48 42  2  0  0  0
M  CHG  3   2   1  32  -1  35  -1
M  END
> <rmsd>
0.636530936

$$$$
MolPort-049-202-401


 65 65  0  0  0  0  0  0  0  0999 V2000
   -1.0047   18.6895   46.8495 C   0  0  0  0  0
   -2.8475   17.4964   45.4118 C   0  0  0  0  0
   -1.9640   16.6673   44.4971 C   0  0  0  0  0
   -2.4405   15.2207   44.4689 C   0  0  0  0  0
   -0.9750   14.4587   46.4354 C   0  0  0  0  0
   -0.9107   13.7494   47.7526 C   0  0  0  0  0
    0.2338   11.6171   46.9830 C   0  0  0  0  0
    1.4151   10.7106   47.0731 C   0  0  0  0  0
    2.2004   10.7173   45.7681 C   0  0  0  0  0
    3.5097    9.9464   45.9051 C   0  0  0  0  0
    4.5547   10.6806   46.6920 C   0  0  0  0  0
    1.1169    8.8273   48.7213 C   0  0  0  0  0
    0.7350    7.4037   48.9701 C   0  0  0  0  0
   -0.5902    7.2974   49.7191 C   0  0  0  0  0
   -1.1729    5.9292   49.5936 C   0  0  0  0  0
   -0.6653    4.7803   50.1553 C   0  0  0  0  0
   -2.4710    4.3345   49.0802 C   0  0  0  0  0
    2.1965    6.8078   51.0069 C   0  0  0  0  0
    3.3542    6.0226   51.5578 C   0  0  0  0  0
    3.8243    4.9015   50.6296 C   0  0  0  0  0
    2.8169    3.7534   50.5649 C   0  0  0  0  0
    3.0183    2.8823   49.3659 C   0  0  0  0  0
    3.5215    6.1057   54.0772 C   0  0  0  0  0
    3.1307    5.5220   55.3955 C   0  0  0  0  0
    2.1628    6.4568   56.1059 C   0  0  0  0  0
    1.3623    5.7109   57.1643 C   0  0  0  0  0
    2.1345    5.5880   58.4356 C   0  0  0  0  0
    5.2441    4.2416   55.9639 C   0  0  0  0  0
    6.3950    4.0483   56.8917 C   0  0  0  0  0
    7.6966    4.4132   56.1958 C   0  0  0  0  0
    7.1938    2.2497   58.4886 C   0  0  0  0  0
    7.1383    0.8117   58.9181 C   0  0  0  0  0
    5.9868    0.5197   59.8859 C   0  0  0  0  0
    6.0755    1.3380   61.1673 C   0  0  0  0  0
   -0.8368   14.7436   48.9149 C   0  0  0  0  0
   -1.1436   14.0471   50.2259 C   0  0  0  0  0
    0.5128   15.4406   49.0063 C   0  0  0  0  0
   -1.8003   14.4655   43.3396 C   0  0  0  0  0
   -2.1772   19.1766   45.5525 S   0  0  0  0  0
   -2.2356   14.5644   45.7630 N   0  0  0  0  0
    0.1973   12.7973   47.7874 N   0  0  0  0  0
    0.9878    9.3584   47.4022 N   0  0  0  0  0
   -1.4921    3.7724   49.8223 N   0  0  0  0  0
   -2.3058    5.6631   48.9231 N   0  0  0  0  0
    1.8095    6.6625   49.6318 N   0  0  0  0  0
    3.0398    5.4978   52.8800 N   0  0  0  0  0
    4.3089    5.2913   56.2231 N   0  0  0  0  0
    6.4355    2.6655   57.3512 N   0  0  0  0  0
    8.4076    0.3888   59.4894 N   0  0  0  0  0
    0.0651   14.9712   45.9367 O   0  0  0  0  0
   -0.7180   11.3446   46.2017 O   0  0  0  0  0
    5.7709   10.0611   46.9421 O   0  0  0  0  0
    4.3530   11.8478   47.1224 O   0  0  0  0  0
    1.5268    9.5577   49.6654 O   0  0  0  0  0
    1.5952    7.6268   51.7539 O   0  0  0  0  0
    2.2292    1.7497   49.2109 O   0  0  0  0  0
    3.8822    3.1617   48.4917 O   0  0  0  0  0
    4.2482    7.1360   54.0241 O   0  0  0  0  0
    2.4758    6.7241   59.1568 O   0  0  0  0  0
    2.4690    4.4516   58.8599 O   0  0  0  0  0
    5.1003    3.4879   54.9621 O   0  0  0  0  0
    7.8592    3.0903   59.1537 O   0  0  0  0  0
    4.7589    0.7464   59.2636 O   0  0  0  0  0
   -2.0016   14.8911   42.0324 O   0  0  0  0  0
   -1.0966   13.4407   43.5550 O   0  0  0  0  0
  1 39  1  0  0  0
  2 39  1  0  0  0
  2  3  1  0  0  0
  4  3  1  0  0  0
  4 40  1  0  0  0
  4 38  1  0  0  0
  6  5  1  0  0  0
  6 41  1  0  0  0
  6 35  1  0  0  0
  8  7  1  0  0  0
  8  9  1  0  0  0
  8 42  1  0  0  0
  9 10  1  0  0  0
 10 11  1  0  0  0
 11 52  1  0  0  0
 13 12  1  0  0  0
 13 14  1  0  0  0
 13 45  1  0  0  0
 14 15  1  0  0  0
 15 44  1  0  0  0
 16 43  1  0  0  0
 19 18  1  0  0  0
 19 20  1  0  0  0
 19 46  1  0  0  0
 20 21  1  0  0  0
 21 22  1  0  0  0
 22 56  1  0  0  0
 24 23  1  0  0  0
 24 25  1  0  0  0
 24 47  1  0  0  0
 25 26  1  0  0  0
 26 27  1  0  0  0
 27 59  1  0  0  0
 29 28  1  0  0  0
 29 30  1  0  0  0
 29 48  1  0  0  0
 32 31  1  0  0  0
 32 49  1  0  0  0
 32 33  1  0  0  0
 33 34  1  0  0  0
 33 63  1  0  0  0
 35 36  1  0  0  0
 35 37  1  0  0  0
 38 64  1  0  0  0
 40  5  1  0  0  0
 41  7  1  0  0  0
 42 12  1  0  0  0
 43 17  1  0  0  0
 45 18  1  0  0  0
 46 23  1  0  0  0
 47 28  1  0  0  0
 48 31  1  0  0  0
  5 50  2  0  0  0
  7 51  2  0  0  0
 11 53  2  0  0  0
 12 54  2  0  0  0
 15 16  2  0  0  0
 17 44  2  0  0  0
 18 55  2  0  0  0
 22 57  2  0  0  0
 23 58  2  0  0  0
 27 60  2  0  0  0
 28 61  2  0  0  0
 31 62  2  0  0  0
 38 65  2  0  0  0
M  END
> <rmsd>
0.69862926

$$$$
MolPort-051-476-193


103112  0  0  0  0  0  0  0  0999 V2000
    8.3672    3.9955   54.9774 C   0  0  0  0  0
    6.1319    3.0880   54.4768 C   0  0  0  0  0
    5.1172    2.7006   53.4731 C   0  0  0  0  0
    3.9736    2.1452   53.8874 C   0  0  0  0  0
    3.2536    1.5342   51.5991 C   0  0  0  0  0
    4.7120   -0.2122   51.9209 C   0  0  0  0  0
    5.4874   -1.1955   53.7665 C   0  0  0  0  0
    5.1225   -1.7309   55.1453 C   0  0  0  0  0
    6.6138   -1.9895   53.0613 C   0  0  0  0  0
    6.3723   -2.1132   51.5426 C   0  0  0  0  0
    5.7127   -0.8621   50.9501 C   0  0  0  0  0
    4.2357    2.5806   51.0550 C   0  0  0  0  0
    3.5252    3.8943   50.7747 C   0  0  0  0  0
    3.3840    4.0824   49.2770 C   0  0  0  0  0
    4.3866    5.0014   51.3513 C   0  0  0  0  0
    5.7131    4.3538   51.7117 C   0  0  0  0  0
    5.4082    2.8932   51.9948 C   0  0  0  0  0
    4.1989    6.6317   53.2113 C   0  0  0  0  0
    3.4634    7.0932   54.4002 C   0  0  0  0  0
    2.4359    6.3613   54.8517 C   0  0  0  0  0
    1.8290    8.0564   56.5437 C   0  0  0  0  0
    1.3007    7.0319   58.5454 C   0  0  0  0  0
    2.0303    6.2110   60.5453 C   0  0  0  0  0
    1.9016    6.3860   62.0506 C   0  0  0  0  0
    1.4125    4.8475   60.1365 C   0  0  0  0  0
    0.0804    4.9849   59.3853 C   0  0  0  0  0
    0.0638    6.1485   58.3692 C   0  0  0  0  0
    3.2854    8.5377   56.5088 C   0  0  0  0  0
    4.1558    7.7712   57.4540 C   0  0  0  0  0
    4.7715    8.4034   58.4453 C   0  0  0  0  0
    3.8290    8.4089   55.0723 C   0  0  0  0  0
    3.4464    9.6252   54.2193 C   0  0  0  0  0
    1.9910    9.6148   53.8673 C   0  0  0  0  0
    1.3281   10.6344   53.3220 C   0  0  0  0  0
    1.9987   11.9070   53.0306 C   0  0  0  0  0
   -0.1515   10.4932   53.0308 C   0  0  0  0  0
   -1.0248   10.3197   54.2905 C   0  0  0  0  0
   -0.7226   11.3587   55.3235 C   0  0  0  0  0
   -1.6437   12.2517   55.6706 C   0  0  0  0  0
   -0.8651    8.9021   54.8651 C   0  0  0  0  0
   -3.0575    8.4922   55.3917 C   0  0  0  0  0
   -4.5305    7.0275   54.3907 C   0  0  0  0  0
   -4.2638    7.1622   52.8912 C   0  0  0  0  0
   -5.7024    7.9017   54.8740 C   0  0  0  0  0
   -5.4241    8.4048   56.2888 C   0  0  0  0  0
   -4.0716    9.1332   56.3503 C   0  0  0  0  0
   -0.7168    8.1562   52.4849 C   0  0  0  0  0
   -0.4121    9.3831   52.0419 C   0  0  0  0  0
   -0.2531    9.6398   50.6011 C   0  0  0  0  0
    0.1994   11.2667   48.7894 C   0  0  0  0  0
    0.9107   12.6057   48.7348 C   0  0  0  0  0
   -0.2030   13.6203   48.6014 C   0  0  0  0  0
   -1.2703   12.9528   47.7329 C   0  0  0  0  0
   -1.0914   11.4588   47.9681 C   0  0  0  0  0
   -2.3413   10.8671   48.6018 C   0  0  0  0  0
   -1.0360   13.2477   46.2523 C   0  0  0  0  0
   -1.5441   12.2393   44.3412 C   0  0  0  0  0
   -0.9355   10.2565   43.3337 C   0  0  0  0  0
    0.4965   10.1029   43.8346 C   0  0  0  0  0
   -0.9945   10.9586   41.9602 C   0  0  0  0  0
   -2.1681   11.9360   41.9050 C   0  0  0  0  0
   -2.1277   12.9130   43.0927 C   0  0  0  0  0
   -0.0765   15.4211   46.9122 C   0  0  0  0  0
    0.2901   14.9631   48.1132 C   0  0  0  0  0
    1.1066   15.8142   48.9975 C   0  0  0  0  0
    2.3917   17.8876   49.3415 C   0  0  0  0  0
    7.3810    3.5486   54.0554 O   0  0  0  0  0
    5.8723    2.9998   55.7094 O   0  0  0  0  0
    3.0060    1.6729   52.9992 O   0  0  0  0  0
    3.5679    0.2075   51.2252 O   0  0  0  0  0
    4.3491   -1.0962   52.9502 O   0  0  0  0  0
    4.2573   -0.8434   55.7830 O   0  0  0  0  0
    6.8169   -3.2539   53.6293 O   0  0  0  0  0
    5.5737   -3.2260   51.2641 O   0  0  0  0  0
    6.6928    0.0672   50.6011 O   0  0  0  0  0
    3.7545    5.4976   52.5229 O   0  0  0  0  0
    5.2096    7.2683   52.8082 O   0  0  0  0  0
    1.6724    6.7616   55.9544 O   0  0  0  0  0
    1.1889    8.2162   57.7976 O   0  0  0  0  0
    1.4423    7.3298   59.9093 O   0  0  0  0  0
    2.7483    5.4925   62.7086 O   0  0  0  0  0
    2.3248    4.1489   59.3453 O   0  0  0  0  0
   -0.9762    5.0620   60.3021 O   0  0  0  0  0
   -1.1042    6.9139   58.4964 O   0  0  0  0  0
    1.4016   12.8331   52.4173 O   0  0  0  0  0
   -1.7624    8.6213   55.9183 O   0  0  0  0  0
   -3.3552    7.1289   55.1765 O   0  0  0  0  0
   -3.9157    8.4719   52.5607 O   0  0  0  0  0
   -6.8789    7.1512   54.8596 O   0  0  0  0  0
   -6.4590    9.2305   56.7379 O   0  0  0  0  0
   -4.2223   10.4784   56.0098 O   0  0  0  0  0
   -0.8852    7.8839   53.8503 O   0  0  0  0  0
   -0.3117    8.6870   49.7733 O   0  0  0  0  0
   -0.0576   10.9490   50.1549 O   0  0  0  0  0
   -2.1162   12.7950   45.4889 O   0  0  0  0  0
   -1.7707   10.8458   44.3201 O   0  0  0  0  0
    1.2123    9.2532   42.9900 O   0  0  0  0  0
   -1.1207   10.0029   40.9509 O   0  0  0  0  0
   -2.1845   12.6218   40.6882 O   0  0  0  0  0
   -1.3589   14.0419   42.7864 O   0  0  0  0  0
   -0.8491   14.6460   46.0421 O   0  0  0  0  0
    1.3406   15.4464   50.1828 O   0  0  0  0  0
    1.6127   17.0276   48.5228 O   0  0  0  0  0
  1 67  1  0  0  0
  2 67  1  0  0  0
  2  3  1  0  0  0
  4 69  1  0  0  0
  5 69  1  0  0  0
  5 70  1  0  0  0
  5 12  1  0  0  0
  6 70  1  0  0  0
  6 71  1  0  0  0
  7 71  1  0  0  0
  7  8  1  0  0  0
  7  9  1  0  0  0
  8 72  1  0  0  0
  9 73  1  0  0  0
  9 10  1  0  0  0
 10 74  1  0  0  0
 10 11  1  0  0  0
 11 75  1  0  0  0
 11  6  1  0  0  0
 12 13  1  0  0  0
 13 14  1  0  0  0
 13 15  1  0  0  0
 15 16  1  0  0  0
 15 76  1  0  0  0
 16 17  1  0  0  0
 17  3  1  0  0  0
 17 12  1  0  0  0
 18 76  1  0  0  0
 18 19  1  0  0  0
 20 78  1  0  0  0
 21 78  1  0  0  0
 21 79  1  0  0  0
 21 28  1  0  0  0
 22 79  1  0  0  0
 22 80  1  0  0  0
 23 80  1  0  0  0
 23 24  1  0  0  0
 23 25  1  0  0  0
 24 81  1  0  0  0
 25 82  1  0  0  0
 25 26  1  0  0  0
 26 83  1  0  0  0
 26 27  1  0  0  0
 27 84  1  0  0  0
 27 22  1  0  0  0
 28 29  1  0  0  0
 28 31  1  0  0  0
 31 32  1  0  0  0
 31 19  1  0  0  0
 32 33  1  0  0  0
 34 35  1  0  0  0
 36 34  1  0  0  0
 36 37  1  0  0  0
 36 48  1  0  0  0
 37 38  1  0  0  0
 37 40  1  0  0  0
 40 86  1  0  0  0
 40 92  1  0  0  0
 41 86  1  0  0  0
 41 87  1  0  0  0
 42 87  1  0  0  0
 42 43  1  0  0  0
 42 44  1  0  0  0
 43 88  1  0  0  0
 44 89  1  0  0  0
 44 45  1  0  0  0
 45 90  1  0  0  0
 45 46  1  0  0  0
 46 91  1  0  0  0
 46 41  1  0  0  0
 47 92  1  0  0  0
 48 49  1  0  0  0
 49 94  1  0  0  0
 50 94  1  0  0  0
 50 51  1  0  0  0
 51 52  1  0  0  0
 52 53  1  0  0  0
 52 64  1  0  0  0
 53 54  1  0  0  0
 53 56  1  0  0  0
 54 55  1  0  0  0
 54 50  1  0  0  0
 56 95  1  0  0  0
 56101  1  0  0  0
 57 95  1  0  0  0
 57 96  1  0  0  0
 58 96  1  0  0  0
 58 59  1  0  0  0
 58 60  1  0  0  0
 59 97  1  0  0  0
 60 98  1  0  0  0
 60 61  1  0  0  0
 61 99  1  0  0  0
 61 62  1  0  0  0
 62100  1  0  0  0
 62 57  1  0  0  0
 63101  1  0  0  0
 64 65  1  0  0  0
 65103  1  0  0  0
 66103  1  0  0  0
  2 68  2  0  0  0
  3  4  2  0  0  0
 18 77  2  0  0  0
 19 20  2  0  0  0
 29 30  2  0  0  0
 33 34  2  0  0  0
 35 85  2  0  0  0
 38 39  2  0  0  0
 47 48  2  0  0  0
 49 93  2  0  0  0
 63 64  2  0  0  0
 65102  2  0  0  0
M  END
> <rmsd>
0.64297545

$$$$
MolPort-051-476-193


103112  0  0  0  0  0  0  0  0999 V2000
   -3.4898    6.0056   50.9619 C   0  0  0  0  0
   -1.8925    7.8731   51.0300 C   0  0  0  0  0
   -1.5278    9.2434   50.6187 C   0  0  0  0  0
   -2.4306   10.0063   49.9944 C   0  0  0  0  0
   -0.7729   11.7265   49.4138 C   0  0  0  0  0
   -1.2681   13.5603   48.0740 C   0  0  0  0  0
   -1.2634   13.4571   45.8242 C   0  0  0  0  0
   -0.7140   12.7260   44.6099 C   0  0  0  0  0
   -2.7866   13.6777   45.6731 C   0  0  0  0  0
   -3.5588   13.3892   46.9691 C   0  0  0  0  0
   -2.7825   13.8147   48.2184 C   0  0  0  0  0
    0.0907   11.2741   50.5929 C   0  0  0  0  0
    1.5659   11.2862   50.1897 C   0  0  0  0  0
    2.2750   12.5179   50.7312 C   0  0  0  0  0
    2.1608    9.9682   50.6870 C   0  0  0  0  0
    0.9950    9.0105   50.5482 C   0  0  0  0  0
   -0.1932    9.8268   51.0238 C   0  0  0  0  0
    2.9083    9.0226   52.8688 C   0  0  0  0  0
    2.7167    9.1061   54.3262 C   0  0  0  0  0
    2.3756   10.2881   54.8560 C   0  0  0  0  0
    1.8199    9.2932   57.0363 C   0  0  0  0  0
   -0.1128    8.4925   58.0061 C   0  0  0  0  0
   -0.9209    9.2001   60.0013 C   0  0  0  0  0
   -0.8964   10.3000   61.0568 C   0  0  0  0  0
   -0.8475    7.7560   60.5808 C   0  0  0  0  0
    0.2941    6.9416   59.9619 C   0  0  0  0  0
    0.2993    7.0773   58.4390 C   0  0  0  0  0
    2.8153    8.1753   56.7111 C   0  0  0  0  0
    4.1715    8.5178   57.2297 C   0  0  0  0  0
    4.7608    7.7241   58.1178 C   0  0  0  0  0
    2.8752    7.8751   55.1994 C   0  0  0  0  0
    1.8657    6.7927   54.8202 C   0  0  0  0  0
    2.1434    5.5407   55.5881 C   0  0  0  0  0
    2.4704    4.3466   55.0719 C   0  0  0  0  0
    2.5922    4.0836   53.6251 C   0  0  0  0  0
    2.8054    3.2044   56.0025 C   0  0  0  0  0
    1.6571    2.7936   56.9418 C   0  0  0  0  0
    0.3862    2.5179   56.2058 C   0  0  0  0  0
   -0.1428    1.2995   56.2113 C   0  0  0  0  0
    1.4411    3.8273   58.0661 C   0  0  0  0  0
    1.4622    2.5249   59.9468 C   0  0  0  0  0
    2.1288    0.3708   60.4351 C   0  0  0  0  0
    3.5577    0.5452   59.9082 C   0  0  0  0  0
    1.9979    0.5882   61.9533 C   0  0  0  0  0
    2.1231    2.0675   62.3072 C   0  0  0  0  0
    1.2110    2.8993   61.4128 C   0  0  0  0  0
    3.9232    4.1155   57.9891 C   0  0  0  0  0
    4.0419    3.4967   56.8104 C   0  0  0  0  0
    5.3712    3.1112   56.3085 C   0  0  0  0  0
    7.8072    2.9560   56.7445 C   0  0  0  0  0
    8.7682    3.3217   57.8612 C   0  0  0  0  0
    9.9887    3.9276   57.1894 C   0  0  0  0  0
    9.9094    3.5636   55.7054 C   0  0  0  0  0
    8.4229    3.4524   55.4272 C   0  0  0  0  0
    7.8985    4.8238   55.0136 C   0  0  0  0  0
   10.5988    2.2153   55.4632 C   0  0  0  0  0
   11.4472    2.6187   53.3635 C   0  0  0  0  0
   12.4827    0.9252   52.2380 C   0  0  0  0  0
   13.5560   -0.1408   52.3695 C   0  0  0  0  0
   12.3668    1.4987   50.8170 C   0  0  0  0  0
   11.6887    2.8743   50.8371 C   0  0  0  0  0
   10.7736    3.0716   52.0525 C   0  0  0  0  0
   12.1673    2.7397   57.2737 C   0  0  0  0  0
   11.2722    3.5275   57.8870 C   0  0  0  0  0
   11.5553    4.0355   59.2429 C   0  0  0  0  0
   10.8179    5.3250   61.2078 C   0  0  0  0  0
   -3.1025    7.3214   50.6059 O   0  0  0  0  0
   -1.1093    7.2038   51.7609 O   0  0  0  0  0
   -2.1225   11.3082   49.5995 O   0  0  0  0  0
   -0.7025   13.1276   49.2986 O   0  0  0  0  0
   -0.9604   12.7202   46.9840 O   0  0  0  0  0
   -0.9043   13.4839   43.4557 O   0  0  0  0  0
   -3.0254   14.9930   45.2676 O   0  0  0  0  0
   -3.8397   12.0231   47.0373 O   0  0  0  0  0
   -3.0016   15.1700   48.4761 O   0  0  0  0  0
    2.4964   10.0927   52.0696 O   0  0  0  0  0
    3.3654    7.9732   52.3410 O   0  0  0  0  0
    2.0960   10.4287   56.2188 O   0  0  0  0  0
    0.4974    8.8691   56.7919 O   0  0  0  0  0
    0.0668    9.4503   59.0276 O   0  0  0  0  0
    0.3699   10.3792   61.6481 O   0  0  0  0  0
   -0.7970    7.7143   61.9814 O   0  0  0  0  0
    1.5198    7.3701   60.4690 O   0  0  0  0  0
   -0.5944    6.1579   57.8888 O   0  0  0  0  0
    2.2801    4.9324   52.7474 O   0  0  0  0  0
    0.6495    3.3100   59.1169 O   0  0  0  0  0
    1.1917    1.1579   59.7222 O   0  0  0  0  0
    3.6277    0.1539   58.5734 O   0  0  0  0  0
    2.9535   -0.1622   62.6442 O   0  0  0  0  0
    1.7728    2.2576   63.6437 O   0  0  0  0  0
    1.4817    4.2549   61.6048 O   0  0  0  0  0
    2.6679    4.4099   58.5411 O   0  0  0  0  0
    5.4673    2.4299   55.2489 O   0  0  0  0  0
    6.5185    3.4953   57.0122 O   0  0  0  0  0
   10.5651    1.8128   54.1113 O   0  0  0  0  0
   12.6890    1.9615   53.1658 O   0  0  0  0  0
   13.5129   -0.6948   53.6486 O   0  0  0  0  0
   13.6286    1.6342   50.2316 O   0  0  0  0  0
   10.9617    3.0521   49.6589 O   0  0  0  0  0
   10.4176    4.4184   52.1501 O   0  0  0  0  0
   11.9169    2.2043   56.0076 O   0  0  0  0  0
   12.6266    3.7153   59.8304 O   0  0  0  0  0
   10.6273    4.8627   59.8798 O   0  0  0  0  0
  1 67  1  0  0  0
  2 67  1  0  0  0
  2  3  1  0  0  0
  4 69  1  0  0  0
  5 69  1  0  0  0
  5 70  1  0  0  0
  5 12  1  0  0  0
  6 70  1  0  0  0
  6 71  1  0  0  0
  7 71  1  0  0  0
  7  8  1  0  0  0
  7  9  1  0  0  0
  8 72  1  0  0  0
  9 73  1  0  0  0
  9 10  1  0  0  0
 10 74  1  0  0  0
 10 11  1  0  0  0
 11 75  1  0  0  0
 11  6  1  0  0  0
 12 13  1  0  0  0
 13 14  1  0  0  0
 13 15  1  0  0  0
 15 16  1  0  0  0
 15 76  1  0  0  0
 16 17  1  0  0  0
 17  3  1  0  0  0
 17 12  1  0  0  0
 18 76  1  0  0  0
 18 19  1  0  0  0
 20 78  1  0  0  0
 21 78  1  0  0  0
 21 79  1  0  0  0
 21 28  1  0  0  0
 22 79  1  0  0  0
 22 80  1  0  0  0
 23 80  1  0  0  0
 23 24  1  0  0  0
 23 25  1  0  0  0
 24 81  1  0  0  0
 25 82  1  0  0  0
 25 26  1  0  0  0
 26 83  1  0  0  0
 26 27  1  0  0  0
 27 84  1  0  0  0
 27 22  1  0  0  0
 28 29  1  0  0  0
 28 31  1  0  0  0
 31 32  1  0  0  0
 31 19  1  0  0  0
 32 33  1  0  0  0
 34 35  1  0  0  0
 36 34  1  0  0  0
 36 37  1  0  0  0
 36 48  1  0  0  0
 37 38  1  0  0  0
 37 40  1  0  0  0
 40 86  1  0  0  0
 40 92  1  0  0  0
 41 86  1  0  0  0
 41 87  1  0  0  0
 42 87  1  0  0  0
 42 43  1  0  0  0
 42 44  1  0  0  0
 43 88  1  0  0  0
 44 89  1  0  0  0
 44 45  1  0  0  0
 45 90  1  0  0  0
 45 46  1  0  0  0
 46 91  1  0  0  0
 46 41  1  0  0  0
 47 92  1  0  0  0
 48 49  1  0  0  0
 49 94  1  0  0  0
 50 94  1  0  0  0
 50 51  1  0  0  0
 51 52  1  0  0  0
 52 53  1  0  0  0
 52 64  1  0  0  0
 53 54  1  0  0  0
 53 56  1  0  0  0
 54 55  1  0  0  0
 54 50  1  0  0  0
 56 95  1  0  0  0
 56101  1  0  0  0
 57 95  1  0  0  0
 57 96  1  0  0  0
 58 96  1  0  0  0
 58 59  1  0  0  0
 58 60  1  0  0  0
 59 97  1  0  0  0
 60 98  1  0  0  0
 60 61  1  0  0  0
 61 99  1  0  0  0
 61 62  1  0  0  0
 62100  1  0  0  0
 62 57  1  0  0  0
 63101  1  0  0  0
 64 65  1  0  0  0
 65103  1  0  0  0
 66103  1  0  0  0
  2 68  2  0  0  0
  3  4  2  0  0  0
 18 77  2  0  0  0
 19 20  2  0  0  0
 29 30  2  0  0  0
 33 34  2  0  0  0
 35 85  2  0  0  0
 38 39  2  0  0  0
 47 48  2  0  0  0
 49 93  2  0  0  0
 63 64  2  0  0  0
 65102  2  0  0  0
M  END
> <rmsd>
0.864625335

$$$$
MolPort-051-476-193


103112  0  0  0  0  0  0  0  0999 V2000
   -3.6398    7.9850   50.1068 C   0  0  0  0  0
   -1.5989    8.8518   49.0453 C   0  0  0  0  0
   -0.9624    9.5755   47.9268 C   0  0  0  0  0
   -1.7267   10.2145   47.0356 C   0  0  0  0  0
    0.1590   10.6244   45.5123 C   0  0  0  0  0
   -0.0966   11.5876   43.4123 C   0  0  0  0  0
   -0.7019   10.3998   41.5971 C   0  0  0  0  0
   -0.7264    9.0197   40.9603 C   0  0  0  0  0
   -2.0760   11.0903   41.4328 C   0  0  0  0  0
   -2.5382   11.8029   42.7125 C   0  0  0  0  0
   -1.3763   12.4461   43.4747 C   0  0  0  0  0
    1.1223   10.5151   46.6959 C   0  0  0  0  0
    2.3786    9.7523   46.2732 C   0  0  0  0  0
    3.5358   10.7022   46.0052 C   0  0  0  0  0
    2.6622    8.7382   47.3820 C   0  0  0  0  0
    1.2701    8.3775   47.8589 C   0  0  0  0  0
    0.5423    9.7097   47.8689 C   0  0  0  0  0
    3.6303    8.7826   49.6786 C   0  0  0  0  0
    3.8540    9.6384   50.8556 C   0  0  0  0  0
    4.0278   10.9524   50.6625 C   0  0  0  0  0
    3.7825   11.4648   53.0562 C   0  0  0  0  0
    2.0172   12.0696   54.4107 C   0  0  0  0  0
    1.9978   13.9158   55.7244 C   0  0  0  0  0
    2.6186   15.2820   55.9941 C   0  0  0  0  0
    1.7856   13.0469   56.9997 C   0  0  0  0  0
    2.4341   11.6639   56.8719 C   0  0  0  0  0
    2.0873   11.0193   55.5296 C   0  0  0  0  0
    4.2821   10.0466   53.3483 C   0  0  0  0  0
    5.7645   10.0405   53.5167 C   0  0  0  0  0
    6.2992    9.6290   54.6616 C   0  0  0  0  0
    3.8590    9.0466   52.2530 C   0  0  0  0  0
    2.5116    8.4098   52.5901 C   0  0  0  0  0
    2.5928    7.7035   53.9050 C   0  0  0  0  0
    2.4061    6.3922   54.1168 C   0  0  0  0  0
    2.0675    5.4290   53.0515 C   0  0  0  0  0
    2.6144    5.8291   55.5033 C   0  0  0  0  0
    1.6783    6.4175   56.5743 C   0  0  0  0  0
    0.2383    6.3356   56.1835 C   0  0  0  0  0
   -0.6086    5.5949   56.8896 C   0  0  0  0  0
    2.0760    7.8594   56.9509 C   0  0  0  0  0
    2.1927    7.7606   59.2336 C   0  0  0  0  0
    2.2916    6.0627   60.7925 C   0  0  0  0  0
    3.5217    5.3836   60.1798 C   0  0  0  0  0
    2.6266    7.0290   61.9429 C   0  0  0  0  0
    3.2721    8.3068   61.4139 C   0  0  0  0  0
    2.4503    8.8704   60.2603 C   0  0  0  0  0
    4.4242    7.0802   56.5922 C   0  0  0  0  0
    4.0461    5.9726   55.9465 C   0  0  0  0  0
    5.0248    4.9083   55.6691 C   0  0  0  0  0
    7.3310    4.0536   55.9845 C   0  0  0  0  0
    8.6106    4.5132   56.6594 C   0  0  0  0  0
    9.7399    4.1802   55.6992 C   0  0  0  0  0
    9.1770    3.1982   54.6698 C   0  0  0  0  0
    7.7055    3.5535   54.5808 C   0  0  0  0  0
    7.5241    4.6228   53.5083 C   0  0  0  0  0
    9.3482    1.7604   55.1749 C   0  0  0  0  0
    9.7076    0.7127   53.1587 C   0  0  0  0  0
    9.8672   -1.5628   53.1006 C   0  0  0  0  0
   10.5713   -2.7465   53.7398 C   0  0  0  0  0
    9.5652   -1.7690   51.6080 C   0  0  0  0  0
    9.3554   -0.4235   50.9023 C   0  0  0  0  0
    8.8853    0.6836   51.8548 C   0  0  0  0  0
   11.4122    2.4482   56.3061 C   0  0  0  0  0
   10.9809    3.7117   56.4304 C   0  0  0  0  0
   11.7411    4.6636   57.2627 C   0  0  0  0  0
   11.9518    6.9208   58.2261 C   0  0  0  0  0
   -2.9845    8.6845   49.0631 O   0  0  0  0  0
   -0.8893    8.3847   49.9802 O   0  0  0  0  0
   -1.1584   10.9149   45.9715 O   0  0  0  0  0
    0.6102   11.6320   44.6392 O   0  0  0  0  0
   -0.3437   10.2777   42.9523 O   0  0  0  0  0
   -0.9734    9.1172   39.5920 O   0  0  0  0  0
   -2.0093   12.0088   40.3824 O   0  0  0  0  0
   -3.1846   10.8813   43.5388 O   0  0  0  0  0
   -1.1090   13.7141   42.9530 O   0  0  0  0  0
    3.3637    9.3840   48.4454 O   0  0  0  0  0
    3.6031    7.5277   49.7938 O   0  0  0  0  0
    4.1633   11.8404   51.7341 O   0  0  0  0  0
    2.3776   11.5290   53.1591 O   0  0  0  0  0
    2.7297   13.2480   54.7221 O   0  0  0  0  0
    3.9588   15.1414   56.3731 O   0  0  0  0  0
    2.1801   13.6830   58.1853 O   0  0  0  0  0
    3.8190   11.7699   56.9904 O   0  0  0  0  0
    0.8509   10.3804   55.6281 O   0  0  0  0  0
    1.8067    5.7805   51.8697 O   0  0  0  0  0
    1.4650    8.2808   58.1541 O   0  0  0  0  0
    1.4801    6.6904   59.8160 O   0  0  0  0  0
    3.1263    4.3955   59.2814 O   0  0  0  0  0
    3.4603    6.4119   62.8798 O   0  0  0  0  0
    3.3505    9.2480   62.4402 O   0  0  0  0  0
    3.1512    9.9156   59.6571 O   0  0  0  0  0
    3.4994    8.0693   56.9576 O   0  0  0  0  0
    4.6381    3.8194   55.1584 O   0  0  0  0  0
    6.3750    5.1068   55.9800 O   0  0  0  0  0
    8.8497    0.7956   54.2740 O   0  0  0  0  0
   10.6035   -0.3798   53.2892 O   0  0  0  0  0
   10.6964   -2.5328   55.1122 O   0  0  0  0  0
   10.6149   -2.4422   50.9772 O   0  0  0  0  0
    8.4363   -0.5809   49.8637 O   0  0  0  0  0
    8.9831    1.9195   51.2120 O   0  0  0  0  0
   10.6971    1.5063   55.5619 O   0  0  0  0  0
   12.7823    4.2859   57.8698 O   0  0  0  0  0
   11.2974    5.9822   57.3868 O   0  0  0  0  0
  1 67  1  0  0  0
  2 67  1  0  0  0
  2  3  1  0  0  0
  4 69  1  0  0  0
  5 69  1  0  0  0
  5 70  1  0  0  0
  5 12  1  0  0  0
  6 70  1  0  0  0
  6 71  1  0  0  0
  7 71  1  0  0  0
  7  8  1  0  0  0
  7  9  1  0  0  0
  8 72  1  0  0  0
  9 73  1  0  0  0
  9 10  1  0  0  0
 10 74  1  0  0  0
 10 11  1  0  0  0
 11 75  1  0  0  0
 11  6  1  0  0  0
 12 13  1  0  0  0
 13 14  1  0  0  0
 13 15  1  0  0  0
 15 16  1  0  0  0
 15 76  1  0  0  0
 16 17  1  0  0  0
 17  3  1  0  0  0
 17 12  1  0  0  0
 18 76  1  0  0  0
 18 19  1  0  0  0
 20 78  1  0  0  0
 21 78  1  0  0  0
 21 79  1  0  0  0
 21 28  1  0  0  0
 22 79  1  0  0  0
 22 80  1  0  0  0
 23 80  1  0  0  0
 23 24  1  0  0  0
 23 25  1  0  0  0
 24 81  1  0  0  0
 25 82  1  0  0  0
 25 26  1  0  0  0
 26 83  1  0  0  0
 26 27  1  0  0  0
 27 84  1  0  0  0
 27 22  1  0  0  0
 28 29  1  0  0  0
 28 31  1  0  0  0
 31 32  1  0  0  0
 31 19  1  0  0  0
 32 33  1  0  0  0
 34 35  1  0  0  0
 36 34  1  0  0  0
 36 37  1  0  0  0
 36 48  1  0  0  0
 37 38  1  0  0  0
 37 40  1  0  0  0
 40 86  1  0  0  0
 40 92  1  0  0  0
 41 86  1  0  0  0
 41 87  1  0  0  0
 42 87  1  0  0  0
 42 43  1  0  0  0
 42 44  1  0  0  0
 43 88  1  0  0  0
 44 89  1  0  0  0
 44 45  1  0  0  0
 45 90  1  0  0  0
 45 46  1  0  0  0
 46 91  1  0  0  0
 46 41  1  0  0  0
 47 92  1  0  0  0
 48 49  1  0  0  0
 49 94  1  0  0  0
 50 94  1  0  0  0
 50 51  1  0  0  0
 51 52  1  0  0  0
 52 53  1  0  0  0
 52 64  1  0  0  0
 53 54  1  0  0  0
 53 56  1  0  0  0
 54 55  1  0  0  0
 54 50  1  0  0  0
 56 95  1  0  0  0
 56101  1  0  0  0
 57 95  1  0  0  0
 57 96  1  0  0  0
 58 96  1  0  0  0
 58 59  1  0  0  0
 58 60  1  0  0  0
 59 97  1  0  0  0
 60 98  1  0  0  0
 60 61  1  0  0  0
 61 99  1  0  0  0
 61 62  1  0  0  0
 62100  1  0  0  0
 62 57  1  0  0  0
 63101  1  0  0  0
 64 65  1  0  0  0
 65103  1  0  0  0
 66103  1  0  0  0
  2 68  2  0  0  0
  3  4  2  0  0  0
 18 77  2  0  0  0
 19 20  2  0  0  0
 29 30  2  0  0  0
 33 34  2  0  0  0
 35 85  2  0  0  0
 38 39  2  0  0  0
 47 48  2  0  0  0
 49 93  2  0  0  0
 63 64  2  0  0  0
 65102  2  0  0  0
M  END
> <rmsd>
0.712747753

$$$$
MolPort-051-476-193


103112  0  0  0  0  0  0  0  0999 V2000
   -3.3885    8.5922   51.1208 C   0  0  0  0  0
   -1.3335    9.6522   50.2862 C   0  0  0  0  0
   -0.6795   10.5723   49.3345 C   0  0  0  0  0
   -1.4301   11.3581   48.5562 C   0  0  0  0  0
    0.4856   12.0521   47.1805 C   0  0  0  0  0
    0.2679   13.3807   45.2857 C   0  0  0  0  0
   -0.2819   12.5403   43.2699 C   0  0  0  0  0
   -0.2761   11.2996   42.3916 C   0  0  0  0  0
   -1.6595   13.2398   43.2001 C   0  0  0  0  0
   -2.1591   13.7035   44.5766 C   0  0  0  0  0
   -1.0226   14.2047   45.4719 C   0  0  0  0  0
    1.4224   11.7351   48.3478 C   0  0  0  0  0
    2.6967   11.0709   47.8244 C   0  0  0  0  0
    3.8490   12.0616   47.7628 C   0  0  0  0  0
    2.9659    9.8733   48.7363 C   0  0  0  0  0
    1.5673    9.4222   49.1047 C   0  0  0  0  0
    0.8245   10.7251   49.3395 C   0  0  0  0  0
    3.8801    9.5042   51.0258 C   0  0  0  0  0
    4.0669   10.1322   52.3442 C   0  0  0  0  0
    4.2302   11.4605   52.3985 C   0  0  0  0  0
    3.9239   11.5256   54.8386 C   0  0  0  0  0
    2.1211   11.8608   56.2364 C   0  0  0  0  0
    2.0505   13.4359   57.8640 C   0  0  0  0  0
    2.6495   14.7341   58.3936 C   0  0  0  0  0
    1.8186   12.3473   58.9538 C   0  0  0  0  0
    2.4855   11.0154   58.5920 C   0  0  0  0  0
    2.1770   10.6244   57.1465 C   0  0  0  0  0
    4.4325   10.0813   54.8795 C   0  0  0  0  0
    5.9106   10.0547   55.0806 C   0  0  0  0  0
    6.4232    9.4448   56.1442 C   0  0  0  0  0
    4.0461    9.2953   53.6100 C   0  0  0  0  0
    2.6986    8.5984   53.7917 C   0  0  0  0  0
    2.7573    7.6645   54.9574 C   0  0  0  0  0
    2.5804    6.3353   54.9218 C   0  0  0  0  0
    2.2775    5.5805   53.6906 C   0  0  0  0  0
    2.7630    5.5300   56.1870 C   0  0  0  0  0
    1.7957    5.9065   57.3239 C   0  0  0  0  0
    0.3662    5.8875   56.8891 C   0  0  0  0  0
   -0.4884    5.0245   57.4270 C   0  0  0  0  0
    2.1684    7.2580   57.9669 C   0  0  0  0  0
    2.2334    6.7449   60.1955 C   0  0  0  0  0
    2.3152    4.7915   61.4205 C   0  0  0  0  0
    3.5668    4.2442   60.7249 C   0  0  0  0  0
    2.6127    5.5339   62.7358 C   0  0  0  0  0
    3.2558    6.8912   62.4649 C   0  0  0  0  0
    2.4546    7.6503   61.4134 C   0  0  0  0  0
    4.5328    6.5735   57.5305 C   0  0  0  0  0
    4.1823    5.5999   56.6844 C   0  0  0  0  0
    5.1791    4.6108   56.2419 C   0  0  0  0  0
    7.4868    3.7286   56.4532 C   0  0  0  0  0
    8.7452    4.0661   57.2321 C   0  0  0  0  0
    9.9001    3.9217   56.2556 C   0  0  0  0  0
    9.3723    3.1404   55.0508 C   0  0  0  0  0
    7.8993    3.4959   54.9916 C   0  0  0  0  0
    7.7307    4.7418   54.1279 C   0  0  0  0  0
    9.5478    1.6357   55.2892 C   0  0  0  0  0
    9.9656    0.9763   53.1254 C   0  0  0  0  0
   10.1520   -1.2492   52.6571 C   0  0  0  0  0
   10.8545   -2.5248   53.0870 C   0  0  0  0  0
    9.8870   -1.1815   51.1449 C   0  0  0  0  0
    9.6785    0.2689   50.6916 C   0  0  0  0  0
    9.1741    1.1801   51.8180 C   0  0  0  0  0
   11.5773    2.1195   56.5777 C   0  0  0  0  0
   11.1291    3.3360   56.9197 C   0  0  0  0  0
   11.8590    4.1252   57.9303 C   0  0  0  0  0
   12.0219    6.1699   59.2941 C   0  0  0  0  0
   -2.7172    9.4750   50.2388 O   0  0  0  0  0
   -0.6406    9.0271   51.1375 O   0  0  0  0  0
   -0.8452   12.2449   47.6521 O   0  0  0  0  0
    0.9455   13.2052   46.5172 O   0  0  0  0  0
    0.0463   12.1752   44.5885 O   0  0  0  0  0
   -0.4925   11.6436   41.0583 O   0  0  0  0  0
   -1.5788   14.3351   42.3369 O   0  0  0  0  0
   -2.8141   12.6422   45.2046 O   0  0  0  0  0
   -0.7575   15.5484   45.1970 O   0  0  0  0  0
    3.6353   10.3189   49.9167 O   0  0  0  0  0
    3.8644    8.2493   50.9094 O   0  0  0  0  0
    4.3309   12.1389   53.6170 O   0  0  0  0  0
    2.5164   11.5603   54.9167 O   0  0  0  0  0
    2.8129   12.9673   56.7752 O   0  0  0  0  0
    3.9820   14.5358   58.7738 O   0  0  0  0  0
    2.1784   12.7589   60.2449 O   0  0  0  0  0
    3.8659   11.1074   58.7621 O   0  0  0  0  0
    0.9459    9.9698   57.0961 O   0  0  0  0  0
    2.0402    6.1401   52.5866 O   0  0  0  0  0
    1.5250    7.4485   59.2112 O   0  0  0  0  0
    1.5196    5.5814   60.5551 O   0  0  0  0  0
    3.2034    3.4341   59.6518 O   0  0  0  0  0
    3.4313    4.7617   63.5648 O   0  0  0  0  0
    3.2998    7.6296   63.6472 O   0  0  0  0  0
    3.1575    8.7928   61.0285 O   0  0  0  0  0
    3.5888    7.4729   58.0471 O   0  0  0  0  0
    4.8166    3.6309   55.5317 O   0  0  0  0  0
    6.5194    4.7585   56.6172 O   0  0  0  0  0
    9.0812    0.8483   54.2154 O   0  0  0  0  0
   10.8704   -0.1155   53.0766 O   0  0  0  0  0
   10.9454   -2.5645   54.4781 O   0  0  0  0  0
   10.9586   -1.7210   50.4282 O   0  0  0  0  0
    8.7856    0.2974   49.6191 O   0  0  0  0  0
    9.2728    2.5133   51.4140 O   0  0  0  0  0
   10.8902    1.3244   55.6568 O   0  0  0  0  0
   12.8901    3.6501   58.4839 O   0  0  0  0  0
   11.3978    5.3959   58.2817 O   0  0  0  0  0
  1 67  1  0  0  0
  2 67  1  0  0  0
  2  3  1  0  0  0
  4 69  1  0  0  0
  5 69  1  0  0  0
  5 70  1  0  0  0
  5 12  1  0  0  0
  6 70  1  0  0  0
  6 71  1  0  0  0
  7 71  1  0  0  0
  7  8  1  0  0  0
  7  9  1  0  0  0
  8 72  1  0  0  0
  9 73  1  0  0  0
  9 10  1  0  0  0
 10 74  1  0  0  0
 10 11  1  0  0  0
 11 75  1  0  0  0
 11  6  1  0  0  0
 12 13  1  0  0  0
 13 14  1  0  0  0
 13 15  1  0  0  0
 15 16  1  0  0  0
 15 76  1  0  0  0
 16 17  1  0  0  0
 17  3  1  0  0  0
 17 12  1  0  0  0
 18 76  1  0  0  0
 18 19  1  0  0  0
 20 78  1  0  0  0
 21 78  1  0  0  0
 21 79  1  0  0  0
 21 28  1  0  0  0
 22 79  1  0  0  0
 22 80  1  0  0  0
 23 80  1  0  0  0
 23 24  1  0  0  0
 23 25  1  0  0  0
 24 81  1  0  0  0
 25 82  1  0  0  0
 25 26  1  0  0  0
 26 83  1  0  0  0
 26 27  1  0  0  0
 27 84  1  0  0  0
 27 22  1  0  0  0
 28 29  1  0  0  0
 28 31  1  0  0  0
 31 32  1  0  0  0
 31 19  1  0  0  0
 32 33  1  0  0  0
 34 35  1  0  0  0
 36 34  1  0  0  0
 36 37  1  0  0  0
 36 48  1  0  0  0
 37 38  1  0  0  0
 37 40  1  0  0  0
 40 86  1  0  0  0
 40 92  1  0  0  0
 41 86  1  0  0  0
 41 87  1  0  0  0
 42 87  1  0  0  0
 42 43  1  0  0  0
 42 44  1  0  0  0
 43 88  1  0  0  0
 44 89  1  0  0  0
 44 45  1  0  0  0
 45 90  1  0  0  0
 45 46  1  0  0  0
 46 91  1  0  0  0
 46 41  1  0  0  0
 47 92  1  0  0  0
 48 49  1  0  0  0
 49 94  1  0  0  0
 50 94  1  0  0  0
 50 51  1  0  0  0
 51 52  1  0  0  0
 52 53  1  0  0  0
 52 64  1  0  0  0
 53 54  1  0  0  0
 53 56  1  0  0  0
 54 55  1  0  0  0
 54 50  1  0  0  0
 56 95  1  0  0  0
 56101  1  0  0  0
 57 95  1  0  0  0
 57 96  1  0  0  0
 58 96  1  0  0  0
 58 59  1  0  0  0
 58 60  1  0  0  0
 59 97  1  0  0  0
 60 98  1  0  0  0
 60 61  1  0  0  0
 61 99  1  0  0  0
 61 62  1  0  0  0
 62100  1  0  0  0
 62 57  1  0  0  0
 63101  1  0  0  0
 64 65  1  0  0  0
 65103  1  0  0  0
 66103  1  0  0  0
  2 68  2  0  0  0
  3  4  2  0  0  0
 18 77  2  0  0  0
 19 20  2  0  0  0
 29 30  2  0  0  0
 33 34  2  0  0  0
 35 85  2  0  0  0
 38 39  2  0  0  0
 47 48  2  0  0  0
 49 93  2  0  0  0
 63 64  2  0  0  0
 65102  2  0  0  0
M  END
> <rmsd>
0.884362578

$$$$
MolPort-019-937-319 MCULE-3650013462 PubChem-45783202


 84 92  0  0  0  0  0  0  0  0999 V2000
    6.1904    2.8043   64.7820 C   0  0  0  0  0
    6.1170    4.0650   63.9872 C   0  0  0  0  0
    5.2457    4.2525   62.9860 C   0  0  0  0  0
    4.2669    3.1849   62.6058 C   0  0  0  0  0
    5.2355    5.5252   62.2415 C   0  0  0  0  0
    4.2483    6.9041   60.4271 C   0  0  0  0  0
    5.4377    6.9610   59.4415 C   0  0  0  0  0
    4.2770    6.0376   57.7408 C   0  0  0  0  0
    2.9179    5.9993   58.4580 C   0  0  0  0  0
    2.9150    6.9498   59.6670 C   0  0  0  0  0
    0.9955    7.8062   60.3689 C   0  0  0  0  0
    4.4411    4.7518   55.9308 C   0  0  0  0  0
    3.3763    4.1953   54.9731 C   0  0  0  0  0
    4.4344    4.8323   53.0833 C   0  0  0  0  0
    5.6682    5.4036   53.8043 C   0  0  0  0  0
    5.7977    4.7892   55.2072 C   0  0  0  0  0
    7.4164    3.4830   55.9667 C   0  0  0  0  0
    4.0742    6.7200   51.8156 C   0  0  0  0  0
    4.9099    7.4243   50.7347 C   0  0  0  0  0
    4.1329    7.8532   49.4791 C   0  0  0  0  0
    2.9099    6.9739   49.1570 C   0  0  0  0  0
    2.2222    7.4282   47.8313 C   0  0  0  0  0
    3.1620    8.0970   46.8074 C   0  0  0  0  0
    2.4773    9.2291   46.0396 C   0  0  0  0  0
    1.9104   10.3013   46.9897 C   0  0  0  0  0
    0.9072   11.1558   46.2005 C   0  0  0  0  0
   -0.1926   11.5427   47.1518 C   0  0  0  0  0
   -0.3197   10.3537   48.0764 C   0  0  0  0  0
    1.0517    9.6870   48.1526 C   0  0  0  0  0
    0.8816    8.1612   47.9835 C   0  0  0  0  0
   -0.0241    7.4665   48.9959 C   0  0  0  0  0
    0.6829    7.2800   50.2989 C   0  0  0  0  0
    1.9953    7.0283   50.3827 C   0  0  0  0  0
    2.5758    7.0384   51.7697 C   0  0  0  0  0
    1.3912   12.3176   45.3177 C   0  0  0  0  0
    1.9485   13.4947   46.1050 C   0  0  0  0  0
    1.8243   12.2142   43.0696 C   0  0  0  0  0
    0.6903   11.2744   42.5855 C   0  0  0  0  0
   -0.6525   11.9815   42.6538 C   0  0  0  0  0
   -0.6122   13.2545   41.8080 C   0  0  0  0  0
    0.7674   13.9316   41.8354 C   0  0  0  0  0
    1.5410   13.8522   40.5174 C   0  0  0  0  0
    1.3603   12.6431   38.6768 C   0  0  0  0  0
    2.2791   11.7109   37.8859 C   0  0  0  0  0
    2.0301   11.8907   36.3869 C   0  0  0  0  0
    0.5342   11.9024   36.0510 C   0  0  0  0  0
   -0.2847   12.7109   37.0720 C   0  0  0  0  0
   -0.1992   14.2189   36.8390 C   0  0  0  0  0
   -1.8936   15.5642   37.5864 C   0  0  0  0  0
   -1.0300   16.8308   37.7405 C   0  0  0  0  0
   -1.6194   17.7254   38.8281 C   0  0  0  0  0
   -1.8944   16.9112   40.0909 C   0  0  0  0  0
   -2.6854   15.6334   39.7570 C   0  0  0  0  0
   -4.1473   15.8758   39.3707 C   0  0  0  0  0
    3.0782   11.1379   47.5227 C   0  0  0  0  0
    3.3560    5.5352   48.9288 C   0  0  0  0  0
    2.0292    4.0656   55.6616 C   0  0  0  0  0
    6.3823    8.0708   59.8457 C   0  0  0  0  0
    6.0445    6.4462   62.5488 O   0  0  0  0  0
    4.3188    5.7093   61.2028 O   0  0  0  0  0
    5.0159    7.1723   58.1161 O   0  0  0  0  0
    1.8338    6.7028   60.5186 O   0  0  0  0  0
    2.6514    4.6925   58.8588 O   0  0  0  0  0
    4.0875    6.0383   56.3557 O   0  0  0  0  0
    3.2603    5.0230   53.8393 O   0  0  0  0  0
    6.3210    3.4933   55.1036 O   0  0  0  0  0
    4.2894    5.3290   51.7657 O   0  0  0  0  0
    1.6044    9.9661   49.4079 O   0  0  0  0  0
    2.3185   11.8792   44.3533 O   0  0  0  0  0
    1.5443   13.6102   42.9742 O   0  0  0  0  0
    1.6158   12.5379   40.0448 O   0  0  0  0  0
    0.0034   12.3511   38.4116 O   0  0  0  0  0
   -1.4719   14.7263   36.5308 O   0  0  0  0  0
   -2.0039   14.8434   38.8037 O   0  0  0  0  0
   -4.9008   16.1703   40.5073 O   0  0  0  0  0
   -2.5702   17.6883   41.0322 O   0  0  0  0  0
   -0.7245   18.7570   39.1203 O   0  0  0  0  0
   -0.9940   17.5297   36.5316 O   0  0  0  0  0
    0.0560   10.5930   36.0055 O   0  0  0  0  0
    2.6227   13.0734   35.9433 O   0  0  0  0  0
    2.0477   10.3837   38.2505 O   0  0  0  0  0
   -1.5740   14.1472   42.2812 O   0  0  0  0  0
   -1.6636   11.1405   42.1844 O   0  0  0  0  0
    0.6646   10.0756   43.3015 O   0  0  0  0  0
  1  2  1  0  0  0
  3  5  1  0  0  0
  4  3  1  0  0  0
  5 60  1  0  0  0
  6 60  1  0  0  0
  6  7  1  0  0  0
  7 61  1  0  0  0
  7 58  1  0  0  0
  8 61  1  0  0  0
  8  9  1  0  0  0
  8 64  1  0  0  0
  9 10  1  0  0  0
  9 63  1  0  0  0
 10 62  1  0  0  0
 10  6  1  0  0  0
 11 62  1  0  0  0
 12 64  1  0  0  0
 12 13  1  0  0  0
 13 65  1  0  0  0
 13 57  1  0  0  0
 14 65  1  0  0  0
 14 15  1  0  0  0
 14 67  1  0  0  0
 15 16  1  0  0  0
 16 66  1  0  0  0
 16 12  1  0  0  0
 17 66  1  0  0  0
 18 67  1  0  0  0
 18 19  1  0  0  0
 19 20  1  0  0  0
 20 21  1  0  0  0
 21 22  1  0  0  0
 21 56  1  0  0  0
 21 33  1  0  0  0
 22 23  1  0  0  0
 23 24  1  0  0  0
 24 25  1  0  0  0
 25 26  1  0  0  0
 25 55  1  0  0  0
 26 27  1  0  0  0
 26 35  1  0  0  0
 27 28  1  0  0  0
 28 29  1  0  0  0
 29 30  1  0  0  0
 29 68  1  0  0  0
 29 25  1  0  0  0
 30 31  1  0  0  0
 30 22  1  0  0  0
 31 32  1  0  0  0
 34 33  1  0  0  0
 34 18  1  0  0  0
 35 36  1  0  0  0
 35 69  1  0  0  0
 37 69  1  0  0  0
 37 38  1  0  0  0
 37 70  1  0  0  0
 38 39  1  0  0  0
 38 84  1  0  0  0
 39 40  1  0  0  0
 39 83  1  0  0  0
 40 41  1  0  0  0
 40 82  1  0  0  0
 41 70  1  0  0  0
 41 42  1  0  0  0
 42 71  1  0  0  0
 43 71  1  0  0  0
 43 44  1  0  0  0
 43 72  1  0  0  0
 44 45  1  0  0  0
 44 81  1  0  0  0
 45 46  1  0  0  0
 45 80  1  0  0  0
 46 47  1  0  0  0
 46 79  1  0  0  0
 47 72  1  0  0  0
 47 48  1  0  0  0
 48 73  1  0  0  0
 49 73  1  0  0  0
 49 50  1  0  0  0
 49 74  1  0  0  0
 50 51  1  0  0  0
 50 78  1  0  0  0
 51 52  1  0  0  0
 51 77  1  0  0  0
 52 53  1  0  0  0
 52 76  1  0  0  0
 53 74  1  0  0  0
 53 54  1  0  0  0
 54 75  1  0  0  0
  2  3  2  0  0  0
  5 59  2  0  0  0
 32 33  2  0  0  0
M  END
> <rmsd>
0.859548867

$$$$
MolPort-019-937-319 MCULE-3650013462 PubChem-45783202


 84 92  0  0  0  0  0  0  0  0999 V2000
    6.9600    3.1900   64.3287 C   0  0  0  0  0
    6.6893    4.4339   63.5504 C   0  0  0  0  0
    5.7013    4.5372   62.6505 C   0  0  0  0  0
    4.7852    3.3849   62.3759 C   0  0  0  0  0
    5.4977    5.7991   61.9155 C   0  0  0  0  0
    4.2010    7.0734   60.2236 C   0  0  0  0  0
    5.2664    7.2286   59.1145 C   0  0  0  0  0
    4.0140    6.1951   57.5475 C   0  0  0  0  0
    2.7496    6.0418   58.4083 C   0  0  0  0  0
    2.7942    6.9963   59.6133 C   0  0  0  0  0
    0.8941    7.6846   60.5226 C   0  0  0  0  0
    4.0935    4.9169   55.7265 C   0  0  0  0  0
    2.9842    4.2622   54.8887 C   0  0  0  0  0
    3.7701    4.9776   52.8968 C   0  0  0  0  0
    5.0196    5.6603   53.4810 C   0  0  0  0  0
    5.3547    5.0690   54.8596 C   0  0  0  0  0
    7.1555    3.9158   55.4344 C   0  0  0  0  0
    3.1087    6.8177   51.6817 C   0  0  0  0  0
    3.7564    7.5858   50.5184 C   0  0  0  0  0
    2.8126    7.9362   49.3562 C   0  0  0  0  0
    1.6445    6.9502   49.1664 C   0  0  0  0  0
    0.7793    7.3334   47.9248 C   0  0  0  0  0
    1.5392    8.0756   46.8067 C   0  0  0  0  0
    0.6778    9.1378   46.1215 C   0  0  0  0  0
    0.1249   10.1621   47.1310 C   0  0  0  0  0
   -1.0297   10.9195   46.4583 C   0  0  0  0  0
   -2.0496   11.2141   47.5248 C   0  0  0  0  0
   -1.9697   10.0246   48.4542 C   0  0  0  0  0
   -0.5446    9.4821   48.3785 C   0  0  0  0  0
   -0.5965    7.9462   48.2243 C   0  0  0  0  0
   -1.3217    7.1809   49.3272 C   0  0  0  0  0
   -0.4636    7.0662   50.5449 C   0  0  0  0  0
    0.8673    6.9319   50.4846 C   0  0  0  0  0
    1.5920    7.0023   51.8002 C   0  0  0  0  0
   -0.7493   12.1136   45.5316 C   0  0  0  0  0
   -0.2160   13.3404   46.2570 C   0  0  0  0  0
   -0.5557   12.0339   43.2493 C   0  0  0  0  0
   -1.6480   10.9946   42.8888 C   0  0  0  0  0
   -3.0326   11.5808   43.1050 C   0  0  0  0  0
   -3.1973   12.8468   42.2637 C   0  0  0  0  0
   -1.8882   13.6431   42.1428 C   0  0  0  0  0
   -1.2585   13.6236   40.7481 C   0  0  0  0  0
   -1.5306   12.3910   38.9345 C   0  0  0  0  0
   -0.6244   11.5384   38.0455 C   0  0  0  0  0
   -1.0498   11.6856   36.5830 C   0  0  0  0  0
   -2.5685   11.5630   36.4120 C   0  0  0  0  0
   -3.3398   12.3028   37.5185 C   0  0  0  0  0
   -3.4138   13.8109   37.2822 C   0  0  0  0  0
   -5.1293   15.0064   38.2137 C   0  0  0  0  0
   -4.3694   16.3453   38.2767 C   0  0  0  0  0
   -4.9139   17.1916   39.4248 C   0  0  0  0  0
   -4.9769   16.3646   40.7074 C   0  0  0  0  0
   -5.6834   15.0198   40.4578 C   0  0  0  0  0
   -7.1943   15.1297   40.2337 C   0  0  0  0  0
    1.2652   11.1019   47.5362 C   0  0  0  0  0
    2.1886    5.5550   48.8866 C   0  0  0  0  0
    1.7367    4.0187   55.7194 C   0  0  0  0  0
    6.1475    8.4200   59.4168 C   0  0  0  0  0
    6.2506    6.7899   62.1357 O   0  0  0  0  0
    4.4608    5.8948   60.9833 O   0  0  0  0  0
    4.6860    7.3930   57.8435 O   0  0  0  0  0
    1.8380    6.6605   60.5768 O   0  0  0  0  0
    2.6450    4.7192   58.8318 O   0  0  0  0  0
    3.6757    6.1699   56.1913 O   0  0  0  0  0
    2.6729    5.0689   53.7768 O   0  0  0  0  0
    5.9762    3.8237   54.6957 O   0  0  0  0  0
    3.4394    5.4508   51.6044 O   0  0  0  0  0
    0.1145    9.8172   49.5670 O   0  0  0  0  0
    0.1029   11.7523   44.4706 O   0  0  0  0  0
   -0.9668   13.3990   43.1892 O   0  0  0  0  0
   -1.1195   12.3179   40.2662 O   0  0  0  0  0
   -2.8771   11.9787   38.8177 O   0  0  0  0  0
   -4.7524   14.2020   37.1159 O   0  0  0  0  0
   -5.0423   14.2867   39.4336 O   0  0  0  0  0
   -7.8428   15.3641   41.4465 O   0  0  0  0  0
   -5.6125   17.0852   41.7191 O   0  0  0  0  0
   -4.0874   18.3000   39.6208 O   0  0  0  0  0
   -4.5270   17.0365   37.0732 O   0  0  0  0  0
   -2.9311   10.2163   36.4148 O   0  0  0  0  0
   -0.6158   12.9130   36.0811 O   0  0  0  0  0
   -0.6965   10.1984   38.4291 O   0  0  0  0  0
   -4.1771   13.6542   42.8414 O   0  0  0  0  0
   -4.0105   10.6508   42.7459 O   0  0  0  0  0
   -1.4896    9.8029   43.5997 O   0  0  0  0  0
  1  2  1  0  0  0
  3  5  1  0  0  0
  4  3  1  0  0  0
  5 60  1  0  0  0
  6 60  1  0  0  0
  6  7  1  0  0  0
  7 61  1  0  0  0
  7 58  1  0  0  0
  8 61  1  0  0  0
  8  9  1  0  0  0
  8 64  1  0  0  0
  9 10  1  0  0  0
  9 63  1  0  0  0
 10 62  1  0  0  0
 10  6  1  0  0  0
 11 62  1  0  0  0
 12 64  1  0  0  0
 12 13  1  0  0  0
 13 65  1  0  0  0
 13 57  1  0  0  0
 14 65  1  0  0  0
 14 15  1  0  0  0
 14 67  1  0  0  0
 15 16  1  0  0  0
 16 66  1  0  0  0
 16 12  1  0  0  0
 17 66  1  0  0  0
 18 67  1  0  0  0
 18 19  1  0  0  0
 19 20  1  0  0  0
 20 21  1  0  0  0
 21 22  1  0  0  0
 21 56  1  0  0  0
 21 33  1  0  0  0
 22 23  1  0  0  0
 23 24  1  0  0  0
 24 25  1  0  0  0
 25 26  1  0  0  0
 25 55  1  0  0  0
 26 27  1  0  0  0
 26 35  1  0  0  0
 27 28  1  0  0  0
 28 29  1  0  0  0
 29 30  1  0  0  0
 29 68  1  0  0  0
 29 25  1  0  0  0
 30 31  1  0  0  0
 30 22  1  0  0  0
 31 32  1  0  0  0
 34 33  1  0  0  0
 34 18  1  0  0  0
 35 36  1  0  0  0
 35 69  1  0  0  0
 37 69  1  0  0  0
 37 38  1  0  0  0
 37 70  1  0  0  0
 38 39  1  0  0  0
 38 84  1  0  0  0
 39 40  1  0  0  0
 39 83  1  0  0  0
 40 41  1  0  0  0
 40 82  1  0  0  0
 41 70  1  0  0  0
 41 42  1  0  0  0
 42 71  1  0  0  0
 43 71  1  0  0  0
 43 44  1  0  0  0
 43 72  1  0  0  0
 44 45  1  0  0  0
 44 81  1  0  0  0
 45 46  1  0  0  0
 45 80  1  0  0  0
 46 47  1  0  0  0
 46 79  1  0  0  0
 47 72  1  0  0  0
 47 48  1  0  0  0
 48 73  1  0  0  0
 49 73  1  0  0  0
 49 50  1  0  0  0
 49 74  1  0  0  0
 50 51  1  0  0  0
 50 78  1  0  0  0
 51 52  1  0  0  0
 51 77  1  0  0  0
 52 53  1  0  0  0
 52 76  1  0  0  0
 53 74  1  0  0  0
 53 54  1  0  0  0
 54 75  1  0  0  0
  2  3  2  0  0  0
  5 59  2  0  0  0
 32 33  2  0  0  0
M  END
> <rmsd>
0.832186162

$$$$
MolPort-005-944-434 MCULE-2001356501 PubChem-45359413


111114  0  0  0  0  0  0  0  0999 V2000
   -3.1552   11.1472   49.6904 C   0  0  0  0  0
   -1.7652   11.7498   49.7991 C   0  0  0  0  0
   -1.1062   11.3398   51.1032 C   0  0  0  0  0
   -0.8990   11.4125   48.5850 C   0  0  0  0  0
   -0.7696    9.9080   48.3157 C   0  0  0  0  0
   -0.4693    9.6369   46.8766 C   0  0  0  0  0
   -1.6132    8.8078   44.7415 C   0  0  0  0  0
   -2.4199    7.5808   44.3466 C   0  0  0  0  0
   -0.3462    8.8040   43.8942 C   0  0  0  0  0
   -2.4140   10.0658   44.5127 C   0  0  0  0  0
   -2.2804   12.6825   44.4706 C   0  0  0  0  0
   -1.3012   13.4980   45.3027 C   0  0  0  0  0
   -3.6106   12.7199   45.2150 C   0  0  0  0  0
   -2.4423   13.2969   43.0904 C   0  0  0  0  0
   -3.9640   11.4988   42.1184 C   0  0  0  0  0
   -4.9052   11.4542   40.9322 C   0  0  0  0  0
   -4.6207   12.7037   40.1125 C   0  0  0  0  0
   -3.8884   13.6562   41.0409 C   0  0  0  0  0
   -4.8109   14.7460   41.4919 C   0  0  0  0  0
   -5.4527   17.1864   41.2869 C   0  0  0  0  0
   -4.6982   18.5048   41.3999 C   0  0  0  0  0
   -5.6071   19.6027   41.9305 C   0  0  0  0  0
   -4.9494   20.9323   41.7846 C   0  0  0  0  0
   -6.3334   17.2040   40.0631 C   0  0  0  0  0
   -6.4175   16.5043   37.5875 C   0  0  0  0  0
   -7.8902   16.8436   37.4207 C   0  0  0  0  0
   -6.1231   15.2327   36.8161 C   0  0  0  0  0
   -5.5464   17.6233   37.0586 C   0  0  0  0  0
   -6.4338   17.5782   34.6713 C   0  0  0  0  0
   -6.3670   18.5526   33.5077 C   0  0  0  0  0
   -5.5730   19.7653   33.9826 C   0  0  0  0  0
   -5.2872   19.5612   35.4576 C   0  0  0  0  0
   -5.9821   20.6000   36.2801 C   0  0  0  0  0
   -8.2081   21.6441   37.0215 C   0  0  0  0  0
   -8.1237   21.2022   38.4789 C   0  0  0  0  0
   -9.6546   21.5342   36.5840 C   0  0  0  0  0
   -7.7548   23.0703   36.8400 C   0  0  0  0  0
   -7.0424   25.2839   37.8668 C   0  0  0  0  0
   -6.5028   25.7469   39.2167 C   0  0  0  0  0
   -5.7498   27.0309   39.1005 C   0  0  0  0  0
   -6.2542   28.1845   39.7111 C   0  0  0  0  0
   -5.5463   29.3875   39.6290 C   0  0  0  0  0
   -4.3309   29.4369   38.9427 C   0  0  0  0  0
   -3.8218   28.2855   38.3340 C   0  0  0  0  0
   -4.5297   27.0825   38.4145 C   0  0  0  0  0
   -8.1986   26.1697   37.4052 C   0  0  0  0  0
    1.5749    9.6216   49.3424 C   0  0  0  0  0
    2.4275    8.9739   50.3897 C   0  0  0  0  0
    0.7986    7.5182   51.6765 C   0  0  0  0  0
    0.3067    6.1544   52.0523 C   0  0  0  0  0
    0.1927    5.2273   50.8398 C   0  0  0  0  0
   -0.3064    3.8553   51.2601 C   0  0  0  0  0
   -0.7770    5.7887   49.8128 C   0  0  0  0  0
    1.2005    5.9789   54.4213 C   0  0  0  0  0
    2.1169    5.3130   55.4145 C   0  0  0  0  0
    3.2587    4.5781   54.7212 C   0  0  0  0  0
    1.3144    4.2911   56.1982 C   0  0  0  0  0
    3.4764    7.4193   55.9696 C   0  0  0  0  0
    4.0947    8.3096   57.0226 C   0  0  0  0  0
    3.1932    9.5054   57.2851 C   0  0  0  0  0
    5.4299    8.8355   56.5236 C   0  0  0  0  0
    3.3708    7.0952   59.1990 C   0  0  0  0  0
    3.8188    6.2050   60.3319 C   0  0  0  0  0
    4.8444    6.9507   61.1668 C   0  0  0  0  0
    2.6708    5.8230   61.2557 C   0  0  0  0  0
    3.7818    4.0309   58.9782 C   0  0  0  0  0
    4.5721    3.0177   58.2104 C   0  0  0  0  0
    4.6364    1.6637   58.9265 C   0  0  0  0  0
    5.2535    1.7287   60.2892 C   0  0  0  0  0
    6.6211    1.9872   60.4457 C   0  0  0  0  0
    7.1883    2.0083   61.7244 C   0  0  0  0  0
    6.3929    1.7640   62.8486 C   0  0  0  0  0
    5.0307    1.4942   62.6945 C   0  0  0  0  0
    4.4621    1.4722   61.4160 C   0  0  0  0  0
    6.4682    3.4368   56.5975 C   0  0  0  0  0
    7.7987    4.0398   56.3318 C   0  0  0  0  0
    0.4634   10.2520   46.2907 O   0  0  0  0  0
   -3.6735   10.0218   44.5584 O   0  0  0  0  0
   -1.6918   14.2519   42.7446 O   0  0  0  0  0
   -5.8682   14.4691   42.1215 O   0  0  0  0  0
   -3.9351   21.2159   42.4723 O   0  0  0  0  0
   -7.2430   18.0698   39.9646 O   0  0  0  0  0
   -4.5762   18.0366   37.7542 O   0  0  0  0  0
   -5.3091   21.3061   37.0821 O   0  0  0  0  0
   -7.6126   23.5345   35.6729 O   0  0  0  0  0
   -9.2658   26.0969   38.3023 O   0  0  0  0  0
   -7.6590   18.9546   33.1643 O   0  0  0  0  0
   -4.6583   10.3139   40.1694 O   0  0  0  0  0
    2.0742   10.5286   48.6256 O   0  0  0  0  0
    0.2409    8.5287   52.1788 O   0  0  0  0  0
    0.3856    6.8539   54.8209 O   0  0  0  0  0
    3.6328    7.6937   54.7462 O   0  0  0  0  0
    2.1544    7.3980   59.0563 O   0  0  0  0  0
    2.5222    4.0017   58.9220 O   0  0  0  0  0
    5.8638    2.8277   55.6739 O   0  0  0  0  0
   -1.2915    8.7087   46.1627 N   0  0  0  0  0
   -1.7319   11.3236   44.3743 N   0  0  0  0  0
   -3.4586   12.8543   42.1734 N   0  0  0  0  0
   -4.4811   16.1035   41.1951 N   0  0  0  0  0
   -5.4838   21.8900   40.8781 N   0  0  0  0  0
   -6.1195   16.2603   39.0015 N   0  0  0  0  0
   -5.8045   18.2476   35.7893 N   0  0  0  0  0
   -7.4065   20.7411   36.1956 N   0  0  0  0  0
   -7.4743   23.8971   37.9766 N   0  0  0  0  0
    0.1928    9.2639   49.2074 N   0  0  0  0  0
    1.9093    7.6676   50.7818 N   0  0  0  0  0
    1.1954    5.5724   53.0482 N   0  0  0  0  0
    2.6702    6.2940   56.3492 N   0  0  0  0  0
    4.3504    7.5705   58.2618 N   0  0  0  0  0
    4.4521    5.0062   59.7877 N   0  0  0  0  0
    5.9055    3.5183   57.9051 N   0  0  0  0  0
  1  2  1  0  0  0
  2  3  1  0  0  0
  2  4  1  0  0  0
  5  4  1  0  0  0
  5  6  1  0  0  0
  5105  1  0  0  0
  6 96  1  0  0  0
  7 96  1  0  0  0
  7  8  1  0  0  0
  7  9  1  0  0  0
  7 10  1  0  0  0
 10 97  1  0  0  0
 11 97  1  0  0  0
 11 12  1  0  0  0
 11 13  1  0  0  0
 11 14  1  0  0  0
 14 98  1  0  0  0
 15 98  1  0  0  0
 15 16  1  0  0  0
 16 17  1  0  0  0
 16 88  1  0  0  0
 17 18  1  0  0  0
 18 19  1  0  0  0
 18 98  1  0  0  0
 19 99  1  0  0  0
 20 99  1  0  0  0
 20 21  1  0  0  0
 20 24  1  0  0  0
 21 22  1  0  0  0
 22 23  1  0  0  0
 23100  1  0  0  0
 24101  1  0  0  0
 25101  1  0  0  0
 25 26  1  0  0  0
 25 27  1  0  0  0
 25 28  1  0  0  0
 28102  1  0  0  0
 29102  1  0  0  0
 29 30  1  0  0  0
 30 31  1  0  0  0
 30 87  1  0  0  0
 31 32  1  0  0  0
 32 33  1  0  0  0
 32102  1  0  0  0
 33103  1  0  0  0
 34103  1  0  0  0
 34 35  1  0  0  0
 34 36  1  0  0  0
 34 37  1  0  0  0
 37104  1  0  0  0
 38104  1  0  0  0
 38 39  1  0  0  0
 38 46  1  0  0  0
 39 40  1  0  0  0
 41 42  1  0  0  0
 43 44  1  0  0  0
 45 40  1  0  0  0
 46 86  1  0  0  0
 48 47  1  0  0  0
 48106  1  0  0  0
 50 49  1  0  0  0
 50 51  1  0  0  0
 50107  1  0  0  0
 51 52  1  0  0  0
 51 53  1  0  0  0
 55 54  1  0  0  0
 55 56  1  0  0  0
 55 57  1  0  0  0
 55108  1  0  0  0
 59 58  1  0  0  0
 59 60  1  0  0  0
 59 61  1  0  0  0
 59109  1  0  0  0
 63 62  1  0  0  0
 63 64  1  0  0  0
 63 65  1  0  0  0
 63110  1  0  0  0
 67 66  1  0  0  0
 67 68  1  0  0  0
 67111  1  0  0  0
 68 69  1  0  0  0
 70 71  1  0  0  0
 72 73  1  0  0  0
 74 69  1  0  0  0
 76 75  1  0  0  0
105 47  1  0  0  0
106 49  1  0  0  0
107 54  1  0  0  0
108 58  1  0  0  0
109 62  1  0  0  0
110 66  1  0  0  0
111 75  1  0  0  0
  6 77  2  0  0  0
 10 78  2  0  0  0
 14 79  2  0  0  0
 19 80  2  0  0  0
 23 81  2  0  0  0
 24 82  2  0  0  0
 28 83  2  0  0  0
 33 84  2  0  0  0
 37 85  2  0  0  0
 40 41  2  0  0  0
 42 43  2  0  0  0
 44 45  2  0  0  0
 47 89  2  0  0  0
 49 90  2  0  0  0
 54 91  2  0  0  0
 58 92  2  0  0  0
 62 93  2  0  0  0
 66 94  2  0  0  0
 69 70  2  0  0  0
 71 72  2  0  0  0
 73 74  2  0  0  0
 75 95  2  0  0  0
M  END
> <rmsd>
0.700473368

$$$$
MolPort-016-936-537 ChemDiv-V025-9927 MCULE-2893628417 PubChem-46000660 ZINC000103374695


 45 50  0  0  0  0  0  0  0  0999 V2000
   -2.7110   15.3949   43.1933 C   0  0  0  0  0
   -1.6320   14.4723   45.2548 C   0  0  0  0  0
   -0.8381   13.5059   44.5885 C   0  0  0  0  0
   -0.1162   12.4234   42.4780 C   0  0  0  0  0
    0.0020   12.6707   45.3443 C   0  0  0  0  0
    0.0692   12.7757   46.7400 C   0  0  0  0  0
   -0.7196   13.7346   47.3843 C   0  0  0  0  0
   -1.5589   14.5712   46.6482 C   0  0  0  0  0
    0.9557   11.8918   47.5266 C   0  0  0  0  0
    2.5927   10.2729   49.0625 C   0  0  0  0  0
    2.5766   10.1144   47.6734 C   0  0  0  0  0
    1.7541   10.9290   46.9013 C   0  0  0  0  0
    3.4810    9.6716   51.3356 C   0  0  0  0  0
    3.4061    8.3363   52.0680 C   0  0  0  0  0
    4.3029    7.1662   50.0462 C   0  0  0  0  0
    4.3725    8.4969   49.3028 C   0  0  0  0  0
    5.3886    6.7889   52.2844 C   0  0  0  0  0
    5.4567    7.0268   53.7597 C   0  0  0  0  0
    3.3589    6.0462   54.6879 C   0  0  0  0  0
    3.0571    6.2289   56.1360 C   0  0  0  0  0
    3.1446    7.5152   56.7147 C   0  0  0  0  0
    2.8882    7.7008   58.0853 C   0  0  0  0  0
    2.5538    6.5753   58.8340 C   0  0  0  0  0
    1.9811    5.1243   60.4948 C   0  0  0  0  0
    2.4744    5.3381   58.2807 C   0  0  0  0  0
    2.7214    5.1151   56.9287 C   0  0  0  0  0
    5.4828    4.7067   54.7643 C   0  0  0  0  0
    6.9406    4.6562   55.0206 C   0  0  0  0  0
    7.6150    3.4263   54.9747 C   0  0  0  0  0
    8.9862    3.3581   55.2376 C   0  0  0  0  0
    9.6946    4.5195   55.5551 C   0  0  0  0  0
    9.0315    5.7475   55.6148 C   0  0  0  0  0
    7.6604    5.8141   55.3520 C   0  0  0  0  0
   -2.5044   15.3533   44.5979 O   0  0  0  0  0
   -0.8858   13.3793   43.1953 O   0  0  0  0  0
    6.2281    6.0136   51.7528 O   0  0  0  0  0
    2.2616    6.4959   60.1809 O   0  0  0  0  0
    2.1292    4.4210   59.2531 O   0  0  0  0  0
    4.8200    3.6336   54.8069 O   0  0  0  0  0
    1.0063   12.0041   48.8827 N   0  0  0  0  0
    1.7949   11.2229   49.6234 N   0  0  0  0  0
    3.4251    9.4453   49.8916 N   0  0  0  0  0
    4.3722    7.4097   51.4841 N   0  0  0  0  0
    4.7989    5.9433   54.4810 N   0  0  0  0  0
   11.4115    4.4352   55.8836 Cl  0  0  0  0  0
  1 34  1  0  0  0
  2 34  1  0  0  0
  3 35  1  0  0  0
  3  5  1  0  0  0
  4 35  1  0  0  0
  6  7  1  0  0  0
  6  9  1  0  0  0
  8  2  1  0  0  0
 10 11  1  0  0  0
 10 42  1  0  0  0
 12  9  1  0  0  0
 13 42  1  0  0  0
 13 14  1  0  0  0
 14 43  1  0  0  0
 15 43  1  0  0  0
 15 16  1  0  0  0
 16 42  1  0  0  0
 18 17  1  0  0  0
 18 44  1  0  0  0
 19 44  1  0  0  0
 19 20  1  0  0  0
 21 22  1  0  0  0
 23 37  1  0  0  0
 24 37  1  0  0  0
 24 38  1  0  0  0
 25 38  1  0  0  0
 25 23  1  0  0  0
 26 20  1  0  0  0
 27 28  1  0  0  0
 29 30  1  0  0  0
 31 45  1  0  0  0
 31 32  1  0  0  0
 33 28  1  0  0  0
 40 41  1  0  0  0
 43 17  1  0  0  0
 44 27  1  0  0  0
  2  3  2  0  0  0
  5  6  2  0  0  0
  7  8  2  0  0  0
  9 40  2  0  0  0
 10 41  2  0  0  0
 11 12  2  0  0  0
 17 36  2  0  0  0
 20 21  2  0  0  0
 22 23  2  0  0  0
 25 26  2  0  0  0
 27 39  2  0  0  0
 28 29  2  0  0  0
 30 31  2  0  0  0
 32 33  2  0  0  0
M  END
> <rmsd>
0.71318233

$$$$
MolPort-016-936-537 ChemDiv-V025-9927 MCULE-2893628417 PubChem-46000660 ZINC000103374695


 45 50  0  0  0  0  0  0  0  0999 V2000
   -1.3480   13.6176   41.5956 C   0  0  0  0  0
   -0.4500   12.9365   43.8305 C   0  0  0  0  0
    0.3909   11.9041   43.3455 C   0  0  0  0  0
    1.2797   10.5936   41.4377 C   0  0  0  0  0
    1.1602   11.1621   44.2578 C   0  0  0  0  0
    1.1115   11.4237   45.6336 C   0  0  0  0  0
    0.2775   12.4462   46.0980 C   0  0  0  0  0
   -0.4927   13.1917   45.2051 C   0  0  0  0  0
    1.9242   10.6370   46.5858 C   0  0  0  0  0
    3.4179    9.2068   48.4251 C   0  0  0  0  0
    3.5167    8.8931   47.0661 C   0  0  0  0  0
    2.7662    9.6127   46.1414 C   0  0  0  0  0
    4.1103    8.8681   50.8175 C   0  0  0  0  0
    3.9667    7.6234   51.6865 C   0  0  0  0  0
    5.0219    6.2365   49.8908 C   0  0  0  0  0
    5.1610    7.4754   49.0111 C   0  0  0  0  0
    5.9151    6.1171   52.2400 C   0  0  0  0  0
    5.8615    6.5196   53.6797 C   0  0  0  0  0
    3.6879    5.6422   54.5339 C   0  0  0  0  0
    3.2676    5.9856   55.9221 C   0  0  0  0  0
    3.3141    7.3291   56.3579 C   0  0  0  0  0
    2.9455    7.6668   57.6727 C   0  0  0  0  0
    2.5434    6.6314   58.5126 C   0  0  0  0  0
    1.8257    5.3744   60.2722 C   0  0  0  0  0
    2.5030    5.3396   58.0972 C   0  0  0  0  0
    2.8605    4.9668   56.8041 C   0  0  0  0  0
    5.7901    4.3274   54.9373 C   0  0  0  0  0
    7.2212    4.3111   55.3183 C   0  0  0  0  0
    7.8898    3.0862   55.4674 C   0  0  0  0  0
    9.2339    3.0529   55.8498 C   0  0  0  0  0
    9.9202    4.2451   56.0928 C   0  0  0  0  0
    9.2617    5.4696   55.9586 C   0  0  0  0  0
    7.9177    5.5015   55.5765 C   0  0  0  0  0
   -1.2595   13.7350   43.0082 O   0  0  0  0  0
    0.4587   11.6215   41.9763 O   0  0  0  0  0
    6.7914    5.2899   51.8708 O   0  0  0  0  0
    2.1395    6.7030   59.8307 O   0  0  0  0  0
    2.0726    4.5364   59.1341 O   0  0  0  0  0
    5.1197    3.2635   55.0447 O   0  0  0  0  0
    1.8623   10.9013   47.9201 N   0  0  0  0  0
    2.5818   10.2111   48.8071 N   0  0  0  0  0
    4.1735    8.4807   49.4084 N   0  0  0  0  0
    4.9726    6.6404   51.2930 N   0  0  0  0  0
    5.1395    5.5218   54.4608 N   0  0  0  0  0
   11.6033    4.2043   56.5708 Cl  0  0  0  0  0
  1 34  1  0  0  0
  2 34  1  0  0  0
  3 35  1  0  0  0
  3  5  1  0  0  0
  4 35  1  0  0  0
  6  7  1  0  0  0
  6  9  1  0  0  0
  8  2  1  0  0  0
 10 11  1  0  0  0
 10 42  1  0  0  0
 12  9  1  0  0  0
 13 42  1  0  0  0
 13 14  1  0  0  0
 14 43  1  0  0  0
 15 43  1  0  0  0
 15 16  1  0  0  0
 16 42  1  0  0  0
 18 17  1  0  0  0
 18 44  1  0  0  0
 19 44  1  0  0  0
 19 20  1  0  0  0
 21 22  1  0  0  0
 23 37  1  0  0  0
 24 37  1  0  0  0
 24 38  1  0  0  0
 25 38  1  0  0  0
 25 23  1  0  0  0
 26 20  1  0  0  0
 27 28  1  0  0  0
 29 30  1  0  0  0
 31 45  1  0  0  0
 31 32  1  0  0  0
 33 28  1  0  0  0
 40 41  1  0  0  0
 43 17  1  0  0  0
 44 27  1  0  0  0
  2  3  2  0  0  0
  5  6  2  0  0  0
  7  8  2  0  0  0
  9 40  2  0  0  0
 10 41  2  0  0  0
 11 12  2  0  0  0
 17 36  2  0  0  0
 20 21  2  0  0  0
 22 23  2  0  0  0
 25 26  2  0  0  0
 27 39  2  0  0  0
 28 29  2  0  0  0
 30 31  2  0  0  0
 32 33  2  0  0  0
M  END
> <rmsd>
0.521874666

$$$$
MolPort-047-913-492 PubChem-21946438 PubChem-6308454 PubChem-87484929 PubChem-87520014


 74 79  0  0  0  0  0  0  0  0999 V2000
    1.9049    7.1290   52.0559 C   0  0  0  0  0
    2.0320    7.7572   54.3824 C   0  0  0  0  0
    3.4766    7.2596   54.5376 C   0  0  0  0  0
    3.5973    5.7663   54.4649 C   0  0  0  0  0
    4.8208    5.1741   54.7825 C   0  0  0  0  0
    4.9902    3.7825   54.6936 C   0  0  0  0  0
    3.9192    2.9788   54.2731 C   0  0  0  0  0
    2.6929    3.5767   53.9433 C   0  0  0  0  0
    2.5280    4.9629   54.0318 C   0  0  0  0  0
    1.1810    5.5743   53.7238 C   0  0  0  0  0
    0.1290    5.2312   54.8093 C   0  0  0  0  0
    0.4854    5.7027   56.1845 C   0  0  0  0  0
    1.4453    5.0266   56.9363 C   0  0  0  0  0
    1.7737    5.4554   58.2291 C   0  0  0  0  0
    1.1200    6.5689   58.7876 C   0  0  0  0  0
    0.1284    7.2468   58.0301 C   0  0  0  0  0
   -0.1773    6.7968   56.7359 C   0  0  0  0  0
   -1.5199    9.0879   57.8288 C   0  0  0  0  0
    0.9524    8.0547   60.8004 C   0  0  0  0  0
    3.4916    3.6857   58.4728 C   0  0  0  0  0
    3.0618    0.7114   53.7737 C   0  0  0  0  0
    7.3467    3.9211   55.4418 C   0  0  0  0  0
   -0.0956    7.5750   53.2492 C   0  0  0  0  0
   -0.1284    9.0550   52.8618 C   0  0  0  0  0
   -0.2640    9.9222   54.1043 C   0  0  0  0  0
    1.1109   11.8616   53.4309 C   0  0  0  0  0
    1.1631   13.2731   52.9514 C   0  0  0  0  0
    1.4515   13.3224   51.4569 C   0  0  0  0  0
    0.2667   12.8685   50.6711 C   0  0  0  0  0
    0.3459   11.7550   49.9429 C   0  0  0  0  0
   -0.8172   11.2584   49.1442 C   0  0  0  0  0
   -1.9089   10.7063   50.0520 C   0  0  0  0  0
   -2.8816   11.7747   50.4162 C   0  0  0  0  0
   -4.5973   13.4003   49.6958 C   0  0  0  0  0
   -3.9015   14.7494   49.7892 C   0  0  0  0  0
   -3.3391   15.1888   48.4306 C   0  0  0  0  0
   -4.8651   17.0345   48.3119 C   0  0  0  0  0
   -5.8244   17.8829   47.4666 C   0  0  0  0  0
   -6.7994   17.0425   46.7007 C   0  0  0  0  0
   -7.9235   17.6614   46.1476 C   0  0  0  0  0
   -8.8841   16.9132   45.4474 C   0  0  0  0  0
   -8.7222   15.5270   45.3199 C   0  0  0  0  0
   -7.5876   14.9096   45.8686 C   0  0  0  0  0
   -6.6001   15.6608   46.5220 C   0  0  0  0  0
   -5.3933   14.9700   47.1339 C   0  0  0  0  0
   -4.9135   13.6863   46.4059 C   0  0  0  0  0
   -4.3875   13.8940   45.0177 C   0  0  0  0  0
   -5.2440   14.2252   43.9681 C   0  0  0  0  0
   -4.7616   14.3881   42.6606 C   0  0  0  0  0
   -3.3788   14.2019   42.4025 C   0  0  0  0  0
   -2.5194   13.8581   43.4624 C   0  0  0  0  0
   -3.0320   13.6958   44.7591 C   0  0  0  0  0
   -0.2144   13.3486   44.2171 C   0  0  0  0  0
   -3.5343   14.5606   39.9256 C   0  0  0  0  0
   -7.0366   14.9341   41.8344 C   0  0  0  0  0
   -9.5939   13.3784   44.4589 C   0  0  0  0  0
  -10.2479   18.9217   44.9621 C   0  0  0  0  0
   -3.5492   16.4061   46.4345 C   0  0  0  0  0
    1.2631    7.0144   53.3673 N   0  0  0  0  0
   -4.3089   15.8899   47.5709 N   0  0  0  0  0
   -0.5440    8.3544   58.5589 O   0  0  0  0  0
    1.4925    6.9500   60.0883 O   0  0  0  0  0
    2.7509    4.7891   58.9790 O   0  0  0  0  0
    4.0950    1.5932   54.1907 O   0  0  0  0  0
    6.2108    3.1798   55.0174 O   0  0  0  0  0
   -0.1247   11.2939   53.7575 O   0  0  0  0  0
    2.1752   11.1846   53.4959 O   0  0  0  0  0
   -3.0201   12.1037   51.6248 O   0  0  0  0  0
   -3.6552   12.3699   49.4169 O   0  0  0  0  0
   -1.1552   13.6787   43.2027 O   0  0  0  0  0
   -2.8060   14.3452   41.1267 O   0  0  0  0  0
   -5.6432   14.7354   41.6291 O   0  0  0  0  0
   -9.6956   14.7837   44.6446 O   0  0  0  0  0
  -10.0066   17.5239   44.8766 O   0  0  0  0  0
  1 59  1  0  0  0
  2  3  1  0  0  0
  3  4  1  0  0  0
  5  6  1  0  0  0
  6 65  1  0  0  0
  7  8  1  0  0  0
  7 64  1  0  0  0
  9  4  1  0  0  0
 10  9  1  0  0  0
 10 11  1  0  0  0
 10 59  1  0  0  0
 11 12  1  0  0  0
 13 14  1  0  0  0
 14 63  1  0  0  0
 15 16  1  0  0  0
 15 62  1  0  0  0
 16 61  1  0  0  0
 17 12  1  0  0  0
 18 61  1  0  0  0
 19 62  1  0  0  0
 20 63  1  0  0  0
 21 64  1  0  0  0
 22 65  1  0  0  0
 23 24  1  0  0  0
 24 25  1  0  0  0
 25 66  1  0  0  0
 26 66  1  0  0  0
 27 26  1  0  0  0
 27 28  1  0  0  0
 28 29  1  0  0  0
 31 30  1  0  0  0
 31 32  1  0  0  0
 32 33  1  0  0  0
 33 69  1  0  0  0
 34 69  1  0  0  0
 34 35  1  0  0  0
 35 36  1  0  0  0
 36 60  1  0  0  0
 37 38  1  0  0  0
 38 39  1  0  0  0
 40 41  1  0  0  0
 41 74  1  0  0  0
 42 43  1  0  0  0
 42 73  1  0  0  0
 44 39  1  0  0  0
 45 44  1  0  0  0
 45 46  1  0  0  0
 45 60  1  0  0  0
 46 47  1  0  0  0
 48 49  1  0  0  0
 49 72  1  0  0  0
 50 51  1  0  0  0
 50 71  1  0  0  0
 51 70  1  0  0  0
 52 47  1  0  0  0
 53 70  1  0  0  0
 54 71  1  0  0  0
 55 72  1  0  0  0
 56 73  1  0  0  0
 57 74  1  0  0  0
 59  2  1  0  0  0
 59 23  1  0  0  0
 60 37  1  0  0  0
 60 58  1  0  0  0
  4  5  2  0  0  0
  6  7  2  0  0  0
  8  9  2  0  0  0
 12 13  2  0  0  0
 14 15  2  0  0  0
 16 17  2  0  0  0
 26 67  2  0  0  0
 29 30  2  0  0  0
 33 68  2  0  0  0
 39 40  2  0  0  0
 41 42  2  0  0  0
 43 44  2  0  0  0
 47 48  2  0  0  0
 49 50  2  0  0  0
 51 52  2  0  0  0
M  CHG  2  59   1  60   1
M  END
> <rmsd>
0.69589597

$$$$
MolPort-006-536-969 ChemDiv-V022-0869 MCULE-6905292460 PubChem-46002764 ZINC000103313494


 42 46  0  0  0  0  0  0  0  0999 V2000
   -2.6408   14.5070   43.1665 C   0  0  0  0  0
   -0.8232   12.9473   43.7849 C   0  0  0  0  0
   -1.4552   12.5733   44.9759 C   0  0  0  0  0
   -0.8588   11.6403   45.8237 C   0  0  0  0  0
    0.3803   11.0566   45.5078 C   0  0  0  0  0
    1.0221   11.4366   44.3023 C   0  0  0  0  0
    2.9494   11.2226   42.7552 C   0  0  0  0  0
    0.4074   12.3777   43.4578 C   0  0  0  0  0
    0.9671   10.0632   46.4508 C   0  0  0  0  0
    0.3310    9.7692   47.6629 C   0  0  0  0  0
    0.8927    8.8358   48.5280 C   0  0  0  0  0
    2.0868    8.2015   48.1734 C   0  0  0  0  0
    2.0675    6.8763   50.3161 C   0  0  0  0  0
    3.1176    6.8277   51.4242 C   0  0  0  0  0
    4.3885    5.5262   49.6504 C   0  0  0  0  0
    3.9355    6.5634   48.6237 C   0  0  0  0  0
    5.4012    5.8855   51.9134 C   0  0  0  0  0
    5.3393    6.4035   53.3160 C   0  0  0  0  0
    3.4237    5.2259   54.4183 C   0  0  0  0  0
    3.0355    5.6904   55.7819 C   0  0  0  0  0
    3.0105    7.0725   56.0760 C   0  0  0  0  0
    2.6631    7.5232   57.3625 C   0  0  0  0  0
    2.3517    6.5598   58.3180 C   0  0  0  0  0
    1.7687    5.4543   60.2225 C   0  0  0  0  0
    2.3756    5.2320   58.0374 C   0  0  0  0  0
    2.7142    4.7481   56.7767 C   0  0  0  0  0
    5.7864    4.4381   54.8148 C   0  0  0  0  0
    8.1852    3.7431   55.2474 C   0  0  0  0  0
    9.5327    3.9878   54.6030 C   0  0  0  0  0
    8.2861    4.0262   56.7338 C   0  0  0  0  0
   -1.3920   13.8792   42.9123 O   0  0  0  0  0
    2.2607   10.8852   43.9525 O   0  0  0  0  0
    6.4232    5.2436   51.5487 O   0  0  0  0  0
    1.9890    6.7448   59.6374 O   0  0  0  0  0
    2.0261    4.5181   59.1658 O   0  0  0  0  0
    5.3573    3.4586   55.4846 O   0  0  0  0  0
    2.6677    8.5191   46.9839 N   0  0  0  0  0
    2.1274    9.4148   46.1553 N   0  0  0  0  0
    2.6979    7.2326   49.0427 N   0  0  0  0  0
    4.3126    6.0896   50.9990 N   0  0  0  0  0
    4.8631    5.3647   54.2207 N   0  0  0  0  0
    7.1959    4.6205   54.6413 N   0  0  0  0  0
  1 31  1  0  0  0
  2 31  1  0  0  0
  3  4  1  0  0  0
  5  6  1  0  0  0
  5  9  1  0  0  0
  6 32  1  0  0  0
  7 32  1  0  0  0
  8  2  1  0  0  0
  9 38  1  0  0  0
 10 11  1  0  0  0
 12 37  1  0  0  0
 12 39  1  0  0  0
 13 39  1  0  0  0
 13 14  1  0  0  0
 14 40  1  0  0  0
 15 40  1  0  0  0
 15 16  1  0  0  0
 16 39  1  0  0  0
 18 17  1  0  0  0
 18 41  1  0  0  0
 19 41  1  0  0  0
 19 20  1  0  0  0
 21 22  1  0  0  0
 23 34  1  0  0  0
 24 34  1  0  0  0
 24 35  1  0  0  0
 25 35  1  0  0  0
 25 23  1  0  0  0
 26 20  1  0  0  0
 27 42  1  0  0  0
 28 42  1  0  0  0
 28 29  1  0  0  0
 28 30  1  0  0  0
 40 17  1  0  0  0
 41 27  1  0  0  0
  2  3  2  0  0  0
  4  5  2  0  0  0
  6  8  2  0  0  0
  9 10  2  0  0  0
 11 12  2  0  0  0
 17 33  2  0  0  0
 20 21  2  0  0  0
 22 23  2  0  0  0
 25 26  2  0  0  0
 27 36  2  0  0  0
 37 38  2  0  0  0
M  END
> <rmsd>
0.597898304

$$$$
MolPort-020-005-884 MCULE-5334855595 PubChem-10724099 ZINC000238809248


 57 63  0  0  0  0  0  0  0  0999 V2000
    3.9678    5.5493   54.1305 C   0  0  0  0  0
    4.2657    5.1220   55.5649 C   0  0  0  0  0
    3.1452    4.2192   56.0887 C   0  0  0  0  0
    1.8193    4.9709   56.2417 C   0  0  0  0  0
    1.9275    6.1902   57.1827 C   0  0  0  0  0
    0.5410    6.8621   57.1638 C   0  0  0  0  0
    0.5492    8.3517   56.8286 C   0  0  0  0  0
    1.2919    8.6425   55.5145 C   0  0  0  0  0
    2.7228    8.1299   55.6275 C   0  0  0  0  0
    3.7202    8.7284   54.9422 C   0  0  0  0  0
    3.5393    9.8923   53.9974 C   0  0  0  0  0
    2.0903   10.4038   53.9051 C   0  0  0  0  0
    1.2774   10.1757   55.2121 C   0  0  0  0  0
   -0.1694   10.6711   55.0287 C   0  0  0  0  0
   -0.2228   12.1114   54.5346 C   0  0  0  0  0
    0.4742   12.2048   53.1767 C   0  0  0  0  0
    1.9727   11.8152   53.2752 C   0  0  0  0  0
    2.5499   11.7656   51.8572 C   0  0  0  0  0
    2.3782   13.1001   51.1382 C   0  0  0  0  0
    0.8954   13.4575   51.0135 C   0  0  0  0  0
    0.1687   13.5063   52.3787 C   0  0  0  0  0
    0.5992   14.7523   53.1584 C   0  0  0  0  0
   -1.3348   13.5877   52.0765 C   0  0  0  0  0
    0.0579   14.3716   49.1615 C   0  0  0  0  0
   -1.0471   15.4254   48.9581 C   0  0  0  0  0
   -1.0636   15.9986   47.5354 C   0  0  0  0  0
   -0.7577   14.9401   46.4605 C   0  0  0  0  0
    0.1764   13.8390   46.9845 C   0  0  0  0  0
   -2.2611   15.0575   44.8321 C   0  0  0  0  0
   -2.5916   14.0641   43.7100 C   0  0  0  0  0
   -3.7615   14.5436   42.8371 C   0  0  0  0  0
   -3.7976   16.0722   42.6834 C   0  0  0  0  0
   -3.3757   16.8014   43.9744 C   0  0  0  0  0
   -4.3246   17.9506   44.2677 C   0  0  0  0  0
    2.7668   12.8282   54.1070 C   0  0  0  0  0
    1.9022   10.9509   56.3822 C   0  0  0  0  0
    3.0818    7.1182   56.7096 C   0  0  0  0  0
    4.4052    6.3590   56.4689 C   0  0  0  0  0
    0.6052    7.8765   54.3767 C   0  0  0  0  0
    2.1955    5.7861   58.6175 C   0  0  0  0  0
    5.5495    4.3334   55.5702 C   0  0  0  0  0
    7.8477    4.0082   56.4084 C   0  0  0  0  0
   -2.0881   13.8663   53.2210 O   0  0  0  0  0
    0.7720   14.6733   50.3259 O   0  0  0  0  0
    0.9370   14.3163   48.0648 O   0  0  0  0  0
   -1.9464   14.3632   46.0009 O   0  0  0  0  0
   -3.3434   15.9235   45.0722 O   0  0  0  0  0
   -4.1445   18.9689   43.3290 O   0  0  0  0  0
   -2.9528   16.4515   41.6417 O   0  0  0  0  0
   -4.9648   14.1016   43.3888 O   0  0  0  0  0
   -1.4599   13.8705   42.9187 O   0  0  0  0  0
   -0.1350   17.0343   47.4432 O   0  0  0  0  0
   -2.2872   14.8604   49.2477 O   0  0  0  0  0
    2.2907    4.5728   58.9546 O   0  0  0  0  0
    2.3249    6.7714   59.5926 O   0  0  0  0  0
    5.6435    3.2951   54.8576 O   0  0  0  0  0
    6.6329    4.7435   56.3565 O   0  0  0  0  0
  2  1  1  0  0  0
  2  3  1  0  0  0
  2 41  1  0  0  0
  3  4  1  0  0  0
  4  5  1  0  0  0
  5  6  1  0  0  0
  5 40  1  0  0  0
  6  7  1  0  0  0
  7  8  1  0  0  0
  8  9  1  0  0  0
  8 39  1  0  0  0
 11 10  1  0  0  0
 12 11  1  0  0  0
 12 13  1  0  0  0
 13 14  1  0  0  0
 13 36  1  0  0  0
 13  8  1  0  0  0
 14 15  1  0  0  0
 16 15  1  0  0  0
 16 17  1  0  0  0
 17 18  1  0  0  0
 17 35  1  0  0  0
 17 12  1  0  0  0
 18 19  1  0  0  0
 19 20  1  0  0  0
 20 21  1  0  0  0
 20 44  1  0  0  0
 21 22  1  0  0  0
 21 23  1  0  0  0
 21 16  1  0  0  0
 23 43  1  0  0  0
 24 44  1  0  0  0
 24 25  1  0  0  0
 24 45  1  0  0  0
 25 26  1  0  0  0
 25 53  1  0  0  0
 26 27  1  0  0  0
 26 52  1  0  0  0
 27 28  1  0  0  0
 27 46  1  0  0  0
 28 45  1  0  0  0
 29 46  1  0  0  0
 29 30  1  0  0  0
 29 47  1  0  0  0
 30 31  1  0  0  0
 30 51  1  0  0  0
 31 32  1  0  0  0
 31 50  1  0  0  0
 32 33  1  0  0  0
 32 49  1  0  0  0
 33 47  1  0  0  0
 33 34  1  0  0  0
 34 48  1  0  0  0
 37  9  1  0  0  0
 37 38  1  0  0  0
 37  5  1  0  0  0
 38  2  1  0  0  0
 40 55  1  0  0  0
 41 57  1  0  0  0
 42 57  1  0  0  0
  9 10  2  0  0  0
 40 54  2  0  0  0
 41 56  2  0  0  0
M  END
> <rmsd>
0.540114343

$$$$
MolPort-001-557-994 150410733 MCULE-3337721302 PubChem-3551420 ZINC000150410733


 55 62  0  0  0  0  0  0  0  0999 V2000
    3.8573   12.7412   53.2383 C   0  0  0  0  0
    4.8794   11.8679   52.5011 C   0  0  0  0  0
    6.1834   12.6605   52.5217 C   0  0  0  0  0
    5.0615   10.5360   53.2184 C   0  0  0  0  0
    4.0539   10.0091   54.0458 C   0  0  0  0  0
    4.2169    8.7694   54.6688 C   0  0  0  0  0
    5.3874    8.0229   54.4730 C   0  0  0  0  0
    6.3815    8.5294   53.6316 C   0  0  0  0  0
    6.2214    9.7695   53.0092 C   0  0  0  0  0
    4.8647    6.1822   56.1139 C   0  0  0  0  0
    5.0705    4.8219   56.4216 C   0  0  0  0  0
    4.3054    4.2167   57.4268 C   0  0  0  0  0
    3.3699    4.9494   58.1601 C   0  0  0  0  0
    3.1910    6.3163   57.8849 C   0  0  0  0  0
    3.9337    6.9164   56.8660 C   0  0  0  0  0
    2.2492    7.1224   58.6197 C   0  0  0  0  0
    2.6175    4.2767   59.1893 C   0  0  0  0  0
    7.3065    4.3028   55.4123 C   0  0  0  0  0
    8.0788    5.4244   55.7148 C   0  0  0  0  0
    9.4306    5.3947   55.3222 C   0  0  0  0  0
    9.9666    4.2583   54.6700 C   0  0  0  0  0
    9.1606    3.1331   54.4062 C   0  0  0  0  0
    7.8285    3.2041   54.8002 C   0  0  0  0  0
    4.4622   11.6192   51.0578 C   0  0  0  0  0
    3.2024   12.0160   50.5742 C   0  0  0  0  0
    2.8377   11.7732   49.2479 C   0  0  0  0  0
    3.7255   11.1292   48.3732 C   0  0  0  0  0
    4.9726   10.7179   48.8507 C   0  0  0  0  0
    5.3399   10.9626   50.1765 C   0  0  0  0  0
    2.3955   11.4822   46.2785 C   0  0  0  0  0
    1.9349   10.8780   45.0878 C   0  0  0  0  0
    0.9782   11.5458   44.3094 C   0  0  0  0  0
    0.4766   12.7912   44.6890 C   0  0  0  0  0
    0.9361   13.3930   45.8726 C   0  0  0  0  0
    1.8911   12.7389   46.6499 C   0  0  0  0  0
    0.4600   14.6826   46.3046 C   0  0  0  0  0
   -0.4991   13.4295   43.8419 C   0  0  0  0  0
    2.4172    9.0502   43.4344 C   0  0  0  0  0
    2.0140    9.5933   42.2152 C   0  0  0  0  0
    2.1624    8.7825   41.0733 C   0  0  0  0  0
    2.7040    7.4793   41.1791 C   0  0  0  0  0
    3.1086    6.9682   42.4288 C   0  0  0  0  0
    2.9456    7.7983   43.5336 C   0  0  0  0  0
    5.5986    6.7678   55.0669 O   0  0  0  0  0
    3.3920   10.8482   47.0393 O   0  0  0  0  0
    1.4928    7.7703   59.2093 N   0  0  0  0  0
    2.0128    3.7358   60.0148 N   0  0  0  0  0
    6.0240    4.0250   55.7024 N   0  0  0  0  0
    6.8807    2.2530   54.7242 N   0  0  0  0  0
    5.7955    2.7806   55.2889 N   0  0  0  0  0
    0.0803   15.7197   46.6522 N   0  0  0  0  0
   -1.2813   13.9450   43.1614 N   0  0  0  0  0
    2.4181    9.5858   44.6691 N   0  0  0  0  0
    3.2659    7.5586   44.8172 N   0  0  0  0  0
    2.9307    8.6634   45.4832 N   0  0  0  0  0
  1  2  1  0  0  0
  2  3  1  0  0  0
  2  4  1  0  0  0
  2 24  1  0  0  0
  5  6  1  0  0  0
  7  8  1  0  0  0
  7 44  1  0  0  0
  9  4  1  0  0  0
 10 44  1  0  0  0
 10 11  1  0  0  0
 11 48  1  0  0  0
 12 13  1  0  0  0
 13 17  1  0  0  0
 14 15  1  0  0  0
 14 16  1  0  0  0
 19 20  1  0  0  0
 21 22  1  0  0  0
 23 49  1  0  0  0
 23 18  1  0  0  0
 25 26  1  0  0  0
 27 28  1  0  0  0
 27 45  1  0  0  0
 29 24  1  0  0  0
 30 45  1  0  0  0
 30 31  1  0  0  0
 31 53  1  0  0  0
 32 33  1  0  0  0
 33 37  1  0  0  0
 34 35  1  0  0  0
 34 36  1  0  0  0
 39 40  1  0  0  0
 41 42  1  0  0  0
 43 54  1  0  0  0
 43 38  1  0  0  0
 48 18  1  0  0  0
 48 50  1  0  0  0
 53 38  1  0  0  0
 53 55  1  0  0  0
  4  5  2  0  0  0
  6  7  2  0  0  0
  8  9  2  0  0  0
 11 12  2  0  0  0
 13 14  2  0  0  0
 15 10  2  0  0  0
 18 19  2  0  0  0
 20 21  2  0  0  0
 22 23  2  0  0  0
 24 25  2  0  0  0
 26 27  2  0  0  0
 28 29  2  0  0  0
 31 32  2  0  0  0
 33 34  2  0  0  0
 35 30  2  0  0  0
 38 39  2  0  0  0
 40 41  2  0  0  0
 42 43  2  0  0  0
 49 50  2  0  0  0
 54 55  2  0  0  0
 16 46  3  0  0  0
 17 47  3  0  0  0
 36 51  3  0  0  0
 37 52  3  0  0  0
M  END
> <rmsd>
0.810793161

$$$$
MolPort-047-972-496


111122  0  0  0  0  0  0  0  0999 V2000
   11.0224   -3.5443   52.9581 C   0  0  0  0  0
   10.5368   -2.7185   50.6703 C   0  0  0  0  0
    9.7816   -1.6467   51.1627 C   0  0  0  0  0
    9.1975   -0.7237   50.2873 C   0  0  0  0  0
    8.3919    0.4039   50.7783 C   0  0  0  0  0
    8.0815    0.5424   52.0637 C   0  0  0  0  0
    7.2900    1.6714   52.5472 C   0  0  0  0  0
    6.1122    3.8035   52.1041 C   0  0  0  0  0
    6.1918    4.9655   51.0951 C   0  0  0  0  0
    7.1442    6.0537   51.5741 C   0  0  0  0  0
    4.1575    5.8144   51.8424 C   0  0  0  0  0
    2.0612    7.0354   52.3055 C   0  0  0  0  0
    0.5674    6.8913   52.0599 C   0  0  0  0  0
    0.1736    5.4135   52.1697 C   0  0  0  0  0
    0.8167    4.5406   51.0881 C   0  0  0  0  0
    0.4969    5.0226   49.6765 C   0  0  0  0  0
    1.4149    4.2900   48.7210 C   0  0  0  0  0
   -0.9309    4.6578   49.3182 C   0  0  0  0  0
    0.7510    6.5324   49.5101 C   0  0  0  0  0
    0.1772    7.4149   50.6453 C   0  0  0  0  0
   -1.3089    7.7161   50.4979 C   0  0  0  0  0
   -1.9442    7.5430   49.3272 C   0  0  0  0  0
   -3.4156    7.8129   49.2192 C   0  0  0  0  0
   -3.8056    9.1531   49.8755 C   0  0  0  0  0
   -3.9227   10.2955   48.8402 C   0  0  0  0  0
   -4.6469   11.4801   49.4839 C   0  0  0  0  0
   -4.7486    9.8411   47.6344 C   0  0  0  0  0
   -4.7582   10.8915   46.5292 C   0  0  0  0  0
   -3.3310   11.1789   46.0399 C   0  0  0  0  0
   -2.6327   11.5477   43.9373 C   0  0  0  0  0
   -3.8270   10.7764   42.0277 C   0  0  0  0  0
   -4.9944   11.7680   42.0742 C   0  0  0  0  0
   -2.7013   11.1733   41.0543 C   0  0  0  0  0
   -1.6363   12.0677   41.6800 C   0  0  0  0  0
   -2.1261   12.6564   42.9975 C   0  0  0  0  0
   -2.3933   11.6576   47.1801 C   0  0  0  0  0
   -2.7844   13.0674   47.6302 C   0  0  0  0  0
   -2.4977   10.6767   48.3753 C   0  0  0  0  0
   -1.4658   10.8690   49.5008 C   0  0  0  0  0
   -2.0638   10.7642   50.9034 C   0  0  0  0  0
   -2.9519    9.5201   51.1535 C   0  0  0  0  0
   -3.9407    9.9536   52.2282 C   0  0  0  0  0
   -2.0913    8.2967   51.6669 C   0  0  0  0  0
   -2.9848    7.1538   52.2085 C   0  0  0  0  0
   -1.0999    8.7460   52.7555 C   0  0  0  0  0
   -0.1910    7.6025   53.1989 C   0  0  0  0  0
   -0.9711   11.6383   46.6624 C   0  0  0  0  0
    3.7668    4.5273   52.6042 C   0  0  0  0  0
    4.6619    5.2518   54.6115 C   0  0  0  0  0
    6.5255    4.7710   55.8196 C   0  0  0  0  0
    7.7013    3.8140   55.8851 C   0  0  0  0  0
    6.0109    5.1360   57.2181 C   0  0  0  0  0
    7.3172    5.5537   58.9839 C   0  0  0  0  0
    8.6429    3.9550   59.8824 C   0  0  0  0  0
    9.3047    4.8840   60.8996 C   0  0  0  0  0
    8.3501    6.0420   61.2200 C   0  0  0  0  0
    8.3433    7.0264   63.2170 C   0  0  0  0  0
   10.1917    7.0879   64.5690 C   0  0  0  0  0
    9.7760    8.3159   65.3896 C   0  0  0  0  0
    8.3198    8.7125   65.0905 C   0  0  0  0  0
    7.9694    8.4638   63.6265 C   0  0  0  0  0
    7.8048    6.6659   59.9322 C   0  0  0  0  0
    4.5479    5.6159   57.1216 C   0  0  0  0  0
    2.9082    6.1147   58.5479 C   0  0  0  0  0
    1.4576    6.7760   60.1364 C   0  0  0  0  0
    2.1822    5.6155   60.7703 C   0  0  0  0  0
    1.1821    4.6620   61.4241 C   0  0  0  0  0
    2.9580    5.0315   59.6119 C   0  0  0  0  0
    4.2070    6.2025   55.7438 C   0  0  0  0  0
    4.6723    3.3293   52.3085 C   0  0  0  0  0
    9.3754   -0.8755   48.9125 C   0  0  0  0  0
   10.1248   -1.9413   48.3929 C   0  0  0  0  0
    9.7136   -1.1770   46.0637 C   0  0  0  0  0
   10.7113   -2.8798   49.2825 C   0  0  0  0  0
   11.6907   -4.3546   47.4996 C   0  0  0  0  0
   11.1252   -3.6432   51.5391 O   0  0  0  0  0
    6.9136    1.6730   53.7484 O   0  0  0  0  0
    6.9473    2.7241   51.6912 O   0  0  0  0  0
    4.9355    5.4968   50.7063 O   0  0  0  0  0
    2.9693    6.4669   51.4118 O   0  0  0  0  0
    2.4903    7.5885   53.3521 O   0  0  0  0  0
   -5.5365   10.4169   45.4707 O   0  0  0  0  0
   -3.3828   12.1058   44.9822 O   0  0  0  0  0
   -3.3359   10.4657   43.3204 O   0  0  0  0  0
   -6.1205   11.1430   42.6192 O   0  0  0  0  0
   -3.2153   11.7563   39.8906 O   0  0  0  0  0
   -0.4692   11.3244   41.8768 O   0  0  0  0  0
   -1.1129   13.3905   43.6211 O   0  0  0  0  0
   -3.4956    7.4425   53.4763 O   0  0  0  0  0
   -0.4194   10.4467   46.2084 O   0  0  0  0  0
   -0.2749   12.6883   46.6256 O   0  0  0  0  0
    3.5210    4.7127   53.9856 O   0  0  0  0  0
    5.4834    4.1982   55.0766 O   0  0  0  0  0
    6.8411    6.1149   57.7904 O   0  0  0  0  0
    8.3837    4.6652   58.7028 O   0  0  0  0  0
    9.5985    4.1652   62.0592 O   0  0  0  0  0
    9.0115    7.0085   61.9861 O   0  0  0  0  0
    9.0697    6.3170   64.2069 O   0  0  0  0  0
   10.6518    9.3668   65.1082 O   0  0  0  0  0
    8.0839   10.0483   65.4344 O   0  0  0  0  0
    6.5959    8.6437   63.4396 O   0  0  0  0  0
    6.7451    7.5329   60.2431 O   0  0  0  0  0
    4.2046    6.4854   58.1637 O   0  0  0  0  0
    2.2201    7.2360   59.0515 O   0  0  0  0  0
    3.0759    6.0965   61.7308 O   0  0  0  0  0
    1.8366    3.5435   61.9514 O   0  0  0  0  0
    2.3555    3.8798   59.0941 O   0  0  0  0  0
    4.8233    7.4455   55.5816 O   0  0  0  0  0
    4.2130    2.6683   51.1649 O   0  0  0  0  0
   10.2846   -2.0770   47.0071 O   0  0  0  0  0
   11.4759   -3.9807   48.8581 O   0  0  0  0  0
  1 76  1  0  0  0
  2 76  1  0  0  0
  3  4  1  0  0  0
  4  5  1  0  0  0
  6  7  1  0  0  0
  7 78  1  0  0  0
  8 78  1  0  0  0
  8  9  1  0  0  0
  9 10  1  0  0  0
  9 79  1  0  0  0
 11 79  1  0  0  0
 11 80  1  0  0  0
 11 48  1  0  0  0
 12 80  1  0  0  0
 13 12  1  0  0  0
 13 14  1  0  0  0
 14 15  1  0  0  0
 15 16  1  0  0  0
 16 17  1  0  0  0
 16 18  1  0  0  0
 16 19  1  0  0  0
 19 20  1  0  0  0
 20 21  1  0  0  0
 20 13  1  0  0  0
 23 22  1  0  0  0
 23 24  1  0  0  0
 24 25  1  0  0  0
 25 26  1  0  0  0
 25 27  1  0  0  0
 27 28  1  0  0  0
 28 82  1  0  0  0
 28 29  1  0  0  0
 29 83  1  0  0  0
 29 36  1  0  0  0
 30 83  1  0  0  0
 30 84  1  0  0  0
 31 84  1  0  0  0
 31 32  1  0  0  0
 31 33  1  0  0  0
 32 85  1  0  0  0
 33 86  1  0  0  0
 33 34  1  0  0  0
 34 87  1  0  0  0
 34 35  1  0  0  0
 35 88  1  0  0  0
 35 30  1  0  0  0
 36 37  1  0  0  0
 36 38  1  0  0  0
 36 47  1  0  0  0
 38 39  1  0  0  0
 38 25  1  0  0  0
 39 40  1  0  0  0
 40 41  1  0  0  0
 41 42  1  0  0  0
 41 43  1  0  0  0
 41 24  1  0  0  0
 43 44  1  0  0  0
 43 45  1  0  0  0
 43 21  1  0  0  0
 44 89  1  0  0  0
 45 46  1  0  0  0
 46 13  1  0  0  0
 47 90  1  0  0  0
 48 92  1  0  0  0
 48 70  1  0  0  0
 49 92  1  0  0  0
 49 93  1  0  0  0
 50 93  1  0  0  0
 50 51  1  0  0  0
 50 52  1  0  0  0
 52 94  1  0  0  0
 52 63  1  0  0  0
 53 94  1  0  0  0
 53 95  1  0  0  0
 54 95  1  0  0  0
 54 55  1  0  0  0
 55 96  1  0  0  0
 55 56  1  0  0  0
 56 97  1  0  0  0
 56 62  1  0  0  0
 57 97  1  0  0  0
 57 98  1  0  0  0
 58 98  1  0  0  0
 58 59  1  0  0  0
 59 99  1  0  0  0
 59 60  1  0  0  0
 60100  1  0  0  0
 60 61  1  0  0  0
 61101  1  0  0  0
 61 57  1  0  0  0
 62102  1  0  0  0
 62 53  1  0  0  0
 63103  1  0  0  0
 63 69  1  0  0  0
 64103  1  0  0  0
 64104  1  0  0  0
 65104  1  0  0  0
 65 66  1  0  0  0
 66105  1  0  0  0
 66 67  1  0  0  0
 66 68  1  0  0  0
 67106  1  0  0  0
 68107  1  0  0  0
 68 64  1  0  0  0
 69108  1  0  0  0
 69 49  1  0  0  0
 70109  1  0  0  0
 70  8  1  0  0  0
 71 72  1  0  0  0
 72110  1  0  0  0
 73110  1  0  0  0
 74111  1  0  0  0
 74  2  1  0  0  0
 75111  1  0  0  0
  2  3  2  0  0  0
  4 71  2  0  0  0
  5  6  2  0  0  0
  7 77  2  0  0  0
 12 81  2  0  0  0
 21 22  2  0  0  0
 47 91  2  0  0  0
 72 74  2  0  0  0
M  END
> <rmsd>
0.718114197

$$$$
MolPort-047-972-496


111122  0  0  0  0  0  0  0  0999 V2000
    1.2688   16.7879   62.3249 C   0  0  0  0  0
    3.6795   16.2848   62.6265 C   0  0  0  0  0
    3.6064   15.2258   61.7049 C   0  0  0  0  0
    4.7388   14.4696   61.3845 C   0  0  0  0  0
    4.6926   13.3899   60.3880 C   0  0  0  0  0
    3.5753   13.0267   59.7656 C   0  0  0  0  0
    3.5818   11.9790   58.7453 C   0  0  0  0  0
    4.9252   10.4997   57.2270 C   0  0  0  0  0
    4.4598   11.0392   55.8525 C   0  0  0  0  0
    4.6164   12.5459   55.7051 C   0  0  0  0  0
    3.1415    9.2756   55.2626 C   0  0  0  0  0
    3.0726    9.3342   52.7791 C   0  0  0  0  0
    3.7408    8.9861   51.4717 C   0  0  0  0  0
    4.8140    7.8936   51.6809 C   0  0  0  0  0
    6.0591    8.4016   52.4135 C   0  0  0  0  0
    6.6486    9.6943   51.8293 C   0  0  0  0  0
    6.6924   10.7517   52.9206 C   0  0  0  0  0
    8.0690    9.4097   51.3796 C   0  0  0  0  0
    5.8637   10.2243   50.6278 C   0  0  0  0  0
    4.3547   10.3029   50.8984 C   0  0  0  0  0
    3.6183   10.7988   49.6814 C   0  0  0  0  0
    3.1629   12.0595   49.7092 C   0  0  0  0  0
    2.2775   12.6753   48.6654 C   0  0  0  0  0
    2.1612   11.8475   47.3776 C   0  0  0  0  0
    2.9433   12.4144   46.1683 C   0  0  0  0  0
    4.4335   12.4786   46.5031 C   0  0  0  0  0
    2.4364   13.8388   45.8919 C   0  0  0  0  0
    2.9696   14.4427   44.5914 C   0  0  0  0  0
    2.7171   13.5466   43.3655 C   0  0  0  0  0
    1.1792   14.8262   42.2995 C   0  0  0  0  0
    0.9174   14.4471   40.0277 C   0  0  0  0  0
    1.6525   14.0436   38.7580 C   0  0  0  0  0
   -0.1091   15.5647   39.7781 C   0  0  0  0  0
   -0.6112   16.1762   41.1078 C   0  0  0  0  0
   -0.3112   15.2638   42.3024 C   0  0  0  0  0
    3.1792   12.0769   43.5710 C   0  0  0  0  0
    4.7076   12.0421   43.5384 C   0  0  0  0  0
    2.6536   11.5339   44.9294 C   0  0  0  0  0
    2.9723   10.0661   45.1945 C   0  0  0  0  0
    2.0531    9.5372   46.2920 C   0  0  0  0  0
    2.1568   10.3088   47.6205 C   0  0  0  0  0
    0.8397   10.0184   48.3394 C   0  0  0  0  0
    3.3766    9.8350   48.5152 C   0  0  0  0  0
    4.6955    9.8042   47.7257 C   0  0  0  0  0
    3.1347    8.4035   49.0733 C   0  0  0  0  0
    2.6734    8.3798   50.5358 C   0  0  0  0  0
    2.6443   11.2125   42.4410 C   0  0  0  0  0
    3.7936    8.3833   56.3581 C   0  0  0  0  0
    4.4416    6.5567   55.0968 C   0  0  0  0  0
    6.1678    5.2046   55.7618 C   0  0  0  0  0
    7.5043    4.6166   55.3552 C   0  0  0  0  0
    5.2718    4.1509   56.4256 C   0  0  0  0  0
    4.8975    1.8769   56.2763 C   0  0  0  0  0
    3.4352    0.5045   57.3057 C   0  0  0  0  0
    4.4937   -0.1430   58.2105 C   0  0  0  0  0
    5.8971    0.0085   57.5999 C   0  0  0  0  0
    7.2672   -1.5762   56.8474 C   0  0  0  0  0
    9.2447   -2.3111   55.9784 C   0  0  0  0  0
    9.0014   -3.8104   56.2129 C   0  0  0  0  0
    7.5420   -4.1145   56.5925 C   0  0  0  0  0
    7.0023   -2.9802   57.4642 C   0  0  0  0  0
    6.1429    1.4345   57.0791 C   0  0  0  0  0
    3.9589    4.8010   56.8669 C   0  0  0  0  0
    3.1814    5.1924   58.9269 C   0  0  0  0  0
    3.2386    4.0509   60.8786 C   0  0  0  0  0
    3.4461    5.4862   61.2763 C   0  0  0  0  0
    4.9077    5.7107   61.6495 C   0  0  0  0  0
    3.0945    6.2444   60.0193 C   0  0  0  0  0
    3.3634    5.6775   55.7642 C   0  0  0  0  0
    4.1981    9.1973   57.5915 C   0  0  0  0  0
    5.9527   14.7671   61.9997 C   0  0  0  0  0
    6.0562   15.8212   62.9176 C   0  0  0  0  0
    8.4558   15.3533   63.3267 C   0  0  0  0  0
    4.9260   16.5950   63.2304 C   0  0  0  0  0
    4.0535   18.4314   64.6900 C   0  0  0  0  0
    2.5348   17.0328   62.9231 O   0  0  0  0  0
    2.4815   11.5674   58.2872 O   0  0  0  0  0
    4.8004   11.4615   58.2801 O   0  0  0  0  0
    3.1326   10.6523   55.5869 O   0  0  0  0  0
    3.7238    9.0524   53.9846 O   0  0  0  0  0
    1.9734    9.9566   52.7871 O   0  0  0  0  0
    4.3217   14.7801   44.7037 O   0  0  0  0  0
    1.3618   13.6114   42.9852 O   0  0  0  0  0
    1.8269   14.8367   41.0310 O   0  0  0  0  0
    2.4383   12.9177   39.0045 O   0  0  0  0  0
    0.4059   16.5599   38.9352 O   0  0  0  0  0
   -0.0473   17.4364   41.3398 O   0  0  0  0  0
   -1.1532   14.1446   42.2555 O   0  0  0  0  0
    4.8462    8.6416   46.9633 O   0  0  0  0  0
    1.2763   10.9602   42.3468 O   0  0  0  0  0
    3.4179   10.6999   41.5844 O   0  0  0  0  0
    4.8987    7.6426   55.8848 O   0  0  0  0  0
    5.5294    5.7730   54.6433 O   0  0  0  0  0
    5.0344    3.0771   55.5456 O   0  0  0  0  0
    3.7325    1.8623   57.0715 O   0  0  0  0  0
    4.4527    0.4351   59.4792 O   0  0  0  0  0
    6.0628   -0.9176   56.5641 O   0  0  0  0  0
    8.0411   -1.6524   55.6609 O   0  0  0  0  0
    9.4011   -4.5565   55.1017 O   0  0  0  0  0
    6.7607   -4.2498   55.4395 O   0  0  0  0  0
    5.6553   -3.1824   57.7870 O   0  0  0  0  0
    6.3505    2.2758   58.1800 O   0  0  0  0  0
    4.1822    5.5586   58.0212 O   0  0  0  0  0
    3.4733    3.9333   59.4996 O   0  0  0  0  0
    2.6176    5.8182   62.3548 O   0  0  0  0  0
    5.1271    7.0399   62.0187 O   0  0  0  0  0
    1.7877    6.7493   60.0736 O   0  0  0  0  0
    2.7491    4.8727   54.7995 O   0  0  0  0  0
    4.9783    8.4339   58.4594 O   0  0  0  0  0
    7.2824   16.1331   63.5176 O   0  0  0  0  0
    5.1065   17.6711   64.1132 O   0  0  0  0  0
  1 76  1  0  0  0
  2 76  1  0  0  0
  3  4  1  0  0  0
  4  5  1  0  0  0
  6  7  1  0  0  0
  7 78  1  0  0  0
  8 78  1  0  0  0
  8  9  1  0  0  0
  9 10  1  0  0  0
  9 79  1  0  0  0
 11 79  1  0  0  0
 11 80  1  0  0  0
 11 48  1  0  0  0
 12 80  1  0  0  0
 13 12  1  0  0  0
 13 14  1  0  0  0
 14 15  1  0  0  0
 15 16  1  0  0  0
 16 17  1  0  0  0
 16 18  1  0  0  0
 16 19  1  0  0  0
 19 20  1  0  0  0
 20 21  1  0  0  0
 20 13  1  0  0  0
 23 22  1  0  0  0
 23 24  1  0  0  0
 24 25  1  0  0  0
 25 26  1  0  0  0
 25 27  1  0  0  0
 27 28  1  0  0  0
 28 82  1  0  0  0
 28 29  1  0  0  0
 29 83  1  0  0  0
 29 36  1  0  0  0
 30 83  1  0  0  0
 30 84  1  0  0  0
 31 84  1  0  0  0
 31 32  1  0  0  0
 31 33  1  0  0  0
 32 85  1  0  0  0
 33 86  1  0  0  0
 33 34  1  0  0  0
 34 87  1  0  0  0
 34 35  1  0  0  0
 35 88  1  0  0  0
 35 30  1  0  0  0
 36 37  1  0  0  0
 36 38  1  0  0  0
 36 47  1  0  0  0
 38 39  1  0  0  0
 38 25  1  0  0  0
 39 40  1  0  0  0
 40 41  1  0  0  0
 41 42  1  0  0  0
 41 43  1  0  0  0
 41 24  1  0  0  0
 43 44  1  0  0  0
 43 45  1  0  0  0
 43 21  1  0  0  0
 44 89  1  0  0  0
 45 46  1  0  0  0
 46 13  1  0  0  0
 47 90  1  0  0  0
 48 92  1  0  0  0
 48 70  1  0  0  0
 49 92  1  0  0  0
 49 93  1  0  0  0
 50 93  1  0  0  0
 50 51  1  0  0  0
 50 52  1  0  0  0
 52 94  1  0  0  0
 52 63  1  0  0  0
 53 94  1  0  0  0
 53 95  1  0  0  0
 54 95  1  0  0  0
 54 55  1  0  0  0
 55 96  1  0  0  0
 55 56  1  0  0  0
 56 97  1  0  0  0
 56 62  1  0  0  0
 57 97  1  0  0  0
 57 98  1  0  0  0
 58 98  1  0  0  0
 58 59  1  0  0  0
 59 99  1  0  0  0
 59 60  1  0  0  0
 60100  1  0  0  0
 60 61  1  0  0  0
 61101  1  0  0  0
 61 57  1  0  0  0
 62102  1  0  0  0
 62 53  1  0  0  0
 63103  1  0  0  0
 63 69  1  0  0  0
 64103  1  0  0  0
 64104  1  0  0  0
 65104  1  0  0  0
 65 66  1  0  0  0
 66105  1  0  0  0
 66 67  1  0  0  0
 66 68  1  0  0  0
 67106  1  0  0  0
 68107  1  0  0  0
 68 64  1  0  0  0
 69108  1  0  0  0
 69 49  1  0  0  0
 70109  1  0  0  0
 70  8  1  0  0  0
 71 72  1  0  0  0
 72110  1  0  0  0
 73110  1  0  0  0
 74111  1  0  0  0
 74  2  1  0  0  0
 75111  1  0  0  0
  2  3  2  0  0  0
  4 71  2  0  0  0
  5  6  2  0  0  0
  7 77  2  0  0  0
 12 81  2  0  0  0
 21 22  2  0  0  0
 47 91  2  0  0  0
 72 74  2  0  0  0
M  END
> <rmsd>
0.750676453

$$$$
MolPort-000-750-289 ChemDiv-0356-0096 LN01788801 MCULE-2615104645 PubChem-4439848


 74 79  0  0  0  0  0  0  0  0999 V2000
    2.3396   -2.4226   66.4301 C   0  0  0  0  0
    3.0688   -1.3971   67.2987 C   0  0  0  0  0
    4.5531   -0.7256   65.5069 C   0  0  0  0  0
    5.6927    0.2646   65.3419 C   0  0  0  0  0
    2.6018    0.6445   66.0391 C   0  0  0  0  0
    1.8945    0.1302   64.7920 C   0  0  0  0  0
    2.4358    1.0978   62.5776 C   0  0  0  0  0
    2.2899    2.1714   61.6848 C   0  0  0  0  0
    2.9225    2.0862   60.4471 C   0  0  0  0  0
    3.6803    0.9845   60.0894 C   0  0  0  0  0
    3.8514   -0.0921   60.9567 C   0  0  0  0  0
    3.2167   -0.0263   62.2094 C   0  0  0  0  0
    4.1762    1.1876   58.7307 C   0  0  0  0  0
    3.7094    2.4077   58.2696 C   0  0  0  0  0
    4.0670    2.8867   57.0093 C   0  0  0  0  0
    4.9040    2.0980   56.2051 C   0  0  0  0  0
    6.2876    1.9670   54.1546 C   0  0  0  0  0
    7.5851    2.7513   54.2649 C   0  0  0  0  0
    8.7236    4.0441   55.8751 C   0  0  0  0  0
    8.0370    4.7826   57.0001 C   0  0  0  0  0
    8.9935    1.6716   55.8924 C   0  0  0  0  0
   10.2245    1.6940   54.9833 C   0  0  0  0  0
    5.3751    0.8512   56.6813 C   0  0  0  0  0
    5.0127    0.3856   57.9566 C   0  0  0  0  0
    2.9203    3.0304   59.3381 C   0  0  0  0  0
    2.1558    6.4596   58.3487 C   0  0  0  0  0
    1.4923    8.5904   57.1681 C   0  0  0  0  0
    1.2986    9.0900   55.7457 C   0  0  0  0  0
    0.2401    8.2753   55.0187 C   0  0  0  0  0
   -1.1520    8.6647   55.4849 C   0  0  0  0  0
   -2.1318    7.5220   55.2581 C   0  0  0  0  0
   -2.3229    7.2197   53.7830 C   0  0  0  0  0
   -2.7267    9.0412   52.0984 C   0  0  0  0  0
   -4.0816   11.5758   49.8381 C   0  0  0  0  0
   -3.8020   12.4390   48.6939 C   0  0  0  0  0
   -4.9027   13.2487   48.4673 C   0  0  0  0  0
   -4.9079   14.2006   47.4477 C   0  0  0  0  0
   -3.7588   14.3029   46.6418 C   0  0  0  0  0
   -2.6408   13.4633   46.8563 C   0  0  0  0  0
   -1.3767   14.3948   44.9243 C   0  0  0  0  0
   -2.1829   13.8271   43.7689 C   0  0  0  0  0
   -2.1880   15.5482   42.1757 C   0  0  0  0  0
   -1.2200   16.3494   41.3389 C   0  0  0  0  0
   -2.0621   13.3091   41.5084 C   0  0  0  0  0
   -0.8689   12.6117   40.8884 C   0  0  0  0  0
   -2.6645   12.5226   47.8965 C   0  0  0  0  0
   -5.9303   12.9205   49.4592 C   0  0  0  0  0
   -5.4388   11.9179   50.2794 C   0  0  0  0  0
   -6.1924   11.4019   51.3319 C   0  0  0  0  0
   -7.4762   11.9254   51.5499 C   0  0  0  0  0
   -9.4883   11.9529   52.9877 C   0  0  0  0  0
  -10.3346   10.8874   53.6616 C   0  0  0  0  0
  -12.0955   10.2773   52.2263 C   0  0  0  0  0
  -12.0159   10.9485   50.8757 C   0  0  0  0  0
  -10.8929    8.6314   53.3730 C   0  0  0  0  0
  -10.3561    7.5060   52.5018 C   0  0  0  0  0
   -7.9713   12.9590   50.7151 C   0  0  0  0  0
   -7.2028   13.4618   49.6519 C   0  0  0  0  0
    3.6372   -0.2651   66.5517 N   0  0  0  0  0
    8.0580    2.7739   55.6481 N   0  0  0  0  0
    2.4284    4.2319   59.3713 N   0  0  0  0  0
    2.4808    5.0768   58.2620 N   0  0  0  0  0
    1.8854    7.1879   57.1518 N   0  0  0  0  0
   -3.1819    8.2240   53.1775 N   0  0  0  0  0
   -3.6305    9.9553   51.4904 N   0  0  0  0  0
   -3.2628   10.7211   50.3739 N   0  0  0  0  0
   -1.6037   14.2546   42.5110 N   0  0  0  0  0
  -10.7648    9.9018   52.6724 N   0  0  0  0  0
    1.8083    1.1718   63.8269 O   0  0  0  0  0
    5.2694    2.5734   54.9426 O   0  0  0  0  0
    2.1720    7.0450   59.4649 O   0  0  0  0  0
   -1.5392    8.9570   51.6859 O   0  0  0  0  0
   -1.4953   13.5453   46.0591 O   0  0  0  0  0
   -8.2499   11.3876   52.5790 O   0  0  0  0  0
  1  2  1  0  0  0
  2 59  1  0  0  0
  3 59  1  0  0  0
  3  4  1  0  0  0
  5 59  1  0  0  0
  5  6  1  0  0  0
  6 69  1  0  0  0
  7 69  1  0  0  0
  8  9  1  0  0  0
 10 11  1  0  0  0
 10 13  1  0  0  0
 12  7  1  0  0  0
 14 15  1  0  0  0
 14 25  1  0  0  0
 16 70  1  0  0  0
 16 23  1  0  0  0
 17 70  1  0  0  0
 17 18  1  0  0  0
 18 60  1  0  0  0
 19 60  1  0  0  0
 19 20  1  0  0  0
 21 60  1  0  0  0
 21 22  1  0  0  0
 24 13  1  0  0  0
 25  9  1  0  0  0
 26 63  1  0  0  0
 27 63  1  0  0  0
 27 28  1  0  0  0
 28 29  1  0  0  0
 29 30  1  0  0  0
 30 31  1  0  0  0
 31 32  1  0  0  0
 32 64  1  0  0  0
 33 65  1  0  0  0
 34 35  1  0  0  0
 35 36  1  0  0  0
 36 47  1  0  0  0
 37 38  1  0  0  0
 39 73  1  0  0  0
 39 46  1  0  0  0
 40 73  1  0  0  0
 40 41  1  0  0  0
 41 67  1  0  0  0
 42 67  1  0  0  0
 42 43  1  0  0  0
 44 67  1  0  0  0
 44 45  1  0  0  0
 48 49  1  0  0  0
 48 34  1  0  0  0
 50 74  1  0  0  0
 50 57  1  0  0  0
 51 74  1  0  0  0
 51 52  1  0  0  0
 52 68  1  0  0  0
 53 68  1  0  0  0
 53 54  1  0  0  0
 55 68  1  0  0  0
 55 56  1  0  0  0
 58 47  1  0  0  0
 62 61  1  0  0  0
 62 26  1  0  0  0
 64 33  1  0  0  0
 65 66  1  0  0  0
  7  8  2  0  0  0
  9 10  2  0  0  0
 11 12  2  0  0  0
 13 14  2  0  0  0
 15 16  2  0  0  0
 23 24  2  0  0  0
 25 61  2  0  0  0
 26 71  2  0  0  0
 33 72  2  0  0  0
 34 66  2  0  0  0
 36 37  2  0  0  0
 38 39  2  0  0  0
 46 35  2  0  0  0
 47 48  2  0  0  0
 49 50  2  0  0  0
 57 58  2  0  0  0
M  END
> <rmsd>
0.62540096

$$$$
MolPort-005-945-700 MCULE-5197765499 PubChem-45360196


 77 85  0  0  0  0  0  0  0  0999 V2000
    4.0514    7.7653   55.5752 O   0  0  0  0  0
    5.5978    6.0529   55.2882 O   0  0  0  0  0
    5.8493    2.8716   55.7533 O   0  0  0  0  0
    3.4593    3.9835   55.5379 O   0  0  0  0  0
    4.1625    5.9985   58.4041 O   0  0  0  0  0
    2.8381    6.8438   60.1191 O   0  0  0  0  0
    5.1272    4.8245   61.9094 O   0  0  0  0  0
    4.8423    2.4988   63.4588 O   0  0  0  0  0
    6.7862    2.2400   65.5842 O   0  0  0  0  0
    7.1170    4.7868   66.9562 O   0  0  0  0  0
    6.4555    5.7432   63.5323 O   0  0  0  0  0
    1.6146    4.5331   61.7914 O   0  0  0  0  0
    1.6169    3.8789   59.2008 O   0  0  0  0  0
    2.6402    6.4327   54.3361 O   0  0  0  0  0
    0.9487   17.1067   48.0009 O   0  0  0  0  0
    0.4076   17.0062   50.2113 O   0  0  0  0  0
    2.8678   15.3425   47.1053 O   0  0  0  0  0
   -0.0752   13.2578   47.0340 O   0  0  0  0  0
    0.6178   12.0036   44.3309 O   0  0  0  0  0
   -2.8393   11.5126   44.4029 O   0  0  0  0  0
   -1.3349   14.0528   42.4128 O   0  0  0  0  0
   -3.6034   16.2286   43.5812 O   0  0  0  0  0
   -1.8817   14.0392   45.8439 O   0  0  0  0  0
    3.4490   12.3445   55.1590 O   0  0  0  0  0
    4.7886    6.7323   56.2197 C   0  0  0  0  0
    3.8869    5.7903   57.0512 C   0  0  0  0  0
    4.1501    4.3144   56.7062 C   0  0  0  0  0
    5.6534    3.9968   56.5627 C   0  0  0  0  0
    6.4321    5.2209   56.0421 C   0  0  0  0  0
    7.6771    4.8686   55.2437 C   0  0  0  0  0
    2.9488    5.8650   59.1025 C   0  0  0  0  0
    3.9353    6.6963   60.9953 C   0  0  0  0  0
    4.0125    7.8906   61.9262 C   0  0  0  0  0
    3.8539    5.3937   61.8125 C   0  0  0  0  0
    5.4226    4.8219   63.2761 C   0  0  0  0  0
    5.8572    3.4174   63.7178 C   0  0  0  0  0
    6.1645    3.4368   65.2154 C   0  0  0  0  0
    7.0664    4.6244   65.5723 C   0  0  0  0  0
    6.5168    5.8988   64.9267 C   0  0  0  0  0
    2.8809    4.3763   61.2107 C   0  0  0  0  0
    2.8063    4.4407   59.6669 C   0  0  0  0  0
    3.2498    7.5278   54.4526 C   0  0  0  0  0
    3.1510    8.5625   53.3456 C   0  0  0  0  0
    3.3560    7.8832   51.9858 C   0  0  0  0  0
    4.7080    7.1745   51.9244 C   0  0  0  0  0
    5.8800    8.1363   52.1230 C   0  0  0  0  0
    7.1151    7.3054   52.4021 C   0  0  0  0  0
    6.1294    8.9029   50.8374 C   0  0  0  0  0
    5.6857    9.0978   53.3169 C   0  0  0  0  0
    4.2515    9.6510   53.5207 C   0  0  0  0  0
    3.9227   10.9274   52.7701 C   0  0  0  0  0
    2.5447   11.5309   53.0357 C   0  0  0  0  0
    1.5572   10.4399   52.5824 C   0  0  0  0  0
    1.7255    9.1517   53.4013 C   0  0  0  0  0
    2.2944   12.8664   52.2401 C   0  0  0  0  0
    2.8042   12.6888   50.7818 C   0  0  0  0  0
    4.3126   12.4099   50.7594 C   0  0  0  0  0
    4.6870   11.3287   51.7327 C   0  0  0  0  0
    2.3838   13.7901   49.7674 C   0  0  0  0  0
    0.8607   14.0214   49.8832 C   0  0  0  0  0
    0.2295   14.9336   48.7945 C   0  0  0  0  0
    0.5807   16.3999   48.9740 C   0  0  0  0  0
    0.6344   14.4217   47.3835 C   0  0  0  0  0
    2.1442   14.1588   47.2298 C   0  0  0  0  0
    2.7054   13.2802   48.3529 C   0  0  0  0  0
   -0.5892   13.5048   45.7505 C   0  0  0  0  0
   -0.6164   12.2090   44.9410 C   0  0  0  0  0
   -1.7385   12.1992   43.8888 C   0  0  0  0  0
   -2.1743   13.6104   43.4469 C   0  0  0  0  0
   -2.1455   14.6427   44.6008 C   0  0  0  0  0
   -3.4636   15.3877   44.6800 C   0  0  0  0  0
   -1.2874   14.8438   48.9181 C   0  0  0  0  0
    0.4358   14.3545   51.3113 C   0  0  0  0  0
    0.7902   13.1994   52.2402 C   0  0  0  0  0
    3.1632   15.0807   50.0312 C   0  0  0  0  0
    3.0323   14.0366   52.8989 C   0  0  0  0  0
    2.3290   11.7674   54.5514 C   0  0  0  0  0
 25  1  1  0  0  0
 25 26  1  0  0  0
 25  2  1  0  0  0
 26 27  1  0  0  0
 26  5  1  0  0  0
 27 28  1  0  0  0
 27  4  1  0  0  0
 28 29  1  0  0  0
 28  3  1  0  0  0
 29  2  1  0  0  0
 29 30  1  0  0  0
 31  5  1  0  0  0
 31  6  1  0  0  0
 32  6  1  0  0  0
 32 33  1  0  0  0
 32 34  1  0  0  0
 34  7  1  0  0  0
 34 40  1  0  0  0
 35  7  1  0  0  0
 35 36  1  0  0  0
 35 11  1  0  0  0
 36  8  1  0  0  0
 36 37  1  0  0  0
 37  9  1  0  0  0
 37 38  1  0  0  0
 38 10  1  0  0  0
 38 39  1  0  0  0
 39 11  1  0  0  0
 40 12  1  0  0  0
 40 41  1  0  0  0
 41 13  1  0  0  0
 41 31  1  0  0  0
 42  1  1  0  0  0
 43 42  1  0  0  0
 43 44  1  0  0  0
 44 45  1  0  0  0
 45 46  1  0  0  0
 46 47  1  0  0  0
 46 48  1  0  0  0
 46 49  1  0  0  0
 49 50  1  0  0  0
 50 51  1  0  0  0
 50 43  1  0  0  0
 52 51  1  0  0  0
 52 53  1  0  0  0
 52 55  1  0  0  0
 52 77  1  0  0  0
 53 54  1  0  0  0
 54 43  1  0  0  0
 55 56  1  0  0  0
 55 76  1  0  0  0
 56 57  1  0  0  0
 56 59  1  0  0  0
 57 58  1  0  0  0
 59 60  1  0  0  0
 59 75  1  0  0  0
 60 61  1  0  0  0
 60 73  1  0  0  0
 61 62  1  0  0  0
 61 63  1  0  0  0
 61 72  1  0  0  0
 62 16  1  0  0  0
 63 64  1  0  0  0
 63 18  1  0  0  0
 64 65  1  0  0  0
 64 17  1  0  0  0
 65 59  1  0  0  0
 66 18  1  0  0  0
 66 67  1  0  0  0
 66 23  1  0  0  0
 67 19  1  0  0  0
 67 68  1  0  0  0
 68 20  1  0  0  0
 68 69  1  0  0  0
 69 21  1  0  0  0
 69 70  1  0  0  0
 70 71  1  0  0  0
 70 23  1  0  0  0
 71 22  1  0  0  0
 73 74  1  0  0  0
 74 55  1  0  0  0
 77 24  1  0  0  0
 42 14  2  0  0  0
 58 51  2  0  0  0
 62 15  2  0  0  0
M  END
> <rmsd>
0.872096896

$$$$
MolPort-044-726-018


 58 63  0  0  0  0  0  0  0  0999 V2000
   -4.3707   14.4815   45.9414 C   0  0  0  0  0
   -3.3663   13.1694   44.0937 C   0  0  0  0  0
   -4.4962   12.3414   43.9881 C   0  0  0  0  0
   -4.5354   11.3109   43.0373 C   0  0  0  0  0
   -3.4441   11.1114   42.1865 C   0  0  0  0  0
   -2.3179   11.9317   42.2867 C   0  0  0  0  0
   -2.2757   12.9571   43.2362 C   0  0  0  0  0
   -5.7340   10.4224   42.9086 C   0  0  0  0  0
   -6.0144    9.6586   44.2041 C   0  0  0  0  0
   -7.1693    8.6792   44.0241 C   0  0  0  0  0
   -4.5869    8.5859   45.9693 C   0  0  0  0  0
   -3.5165    7.7026   46.1942 C   0  0  0  0  0
   -1.6635    6.3663   45.2370 C   0  0  0  0  0
   -3.2268    7.2694   47.4960 C   0  0  0  0  0
   -3.9914    7.7088   48.5785 C   0  0  0  0  0
   -5.0325    8.6085   48.3633 C   0  0  0  0  0
   -5.3406    9.0628   47.0712 C   0  0  0  0  0
   -7.1277   10.5385   47.9563 C   0  0  0  0  0
   -3.7003    7.2476   49.9697 C   0  0  0  0  0
   -2.6833    5.5970   51.0930 C   0  0  0  0  0
   -1.8815    6.8453   51.4040 C   0  0  0  0  0
   -2.4447    7.8882   50.5151 C   0  0  0  0  0
   -2.8137    9.0283   51.4423 C   0  0  0  0  0
   -2.2248    7.3412   52.7911 C   0  0  0  0  0
   -1.1832    6.9538   53.7903 C   0  0  0  0  0
   -1.5198    6.0721   54.8159 C   0  0  0  0  0
   -0.5750    5.6958   55.7831 C   0  0  0  0  0
   -2.2156    4.1972   56.8849 C   0  0  0  0  0
    0.7351    6.2340   55.7209 C   0  0  0  0  0
    1.5113    5.2888   57.9129 C   0  0  0  0  0
    0.9737    6.2945   58.9246 C   0  0  0  0  0
    2.7987    4.6286   58.4091 C   0  0  0  0  0
    3.3064    3.6273   57.4207 C   0  0  0  0  0
    2.5586    2.4854   57.1006 C   0  0  0  0  0
    3.0468    1.5656   56.1706 C   0  0  0  0  0
    4.2829    1.7797   55.5546 C   0  0  0  0  0
    5.0386    2.9215   55.8636 C   0  0  0  0  0
    7.0778    4.2682   55.4498 C   0  0  0  0  0
    4.5420    3.8417   56.8022 C   0  0  0  0  0
    1.0762    7.1091   54.6744 C   0  0  0  0  0
    2.8094    8.5080   53.5881 C   0  0  0  0  0
    0.1151    7.4651   53.7172 C   0  0  0  0  0
   -3.3072   14.2020   45.0376 O   0  0  0  0  0
   -1.1473   13.7628   43.3237 O   0  0  0  0  0
   -6.8487   11.1844   42.5475 O   0  0  0  0  0
   -6.8308    7.6838   43.1075 O   0  0  0  0  0
   -4.8483    8.9628   44.6404 O   0  0  0  0  0
   -2.7581    7.2622   45.1035 O   0  0  0  0  0
   -6.3758    9.9872   46.8818 O   0  0  0  0  0
   -3.5526    5.8538   50.0178 O   0  0  0  0  0
   -2.3738    8.7355   52.7447 O   0  0  0  0  0
   -0.9247    4.7859   56.7878 O   0  0  0  0  0
    1.7352    5.9286   56.6605 O   0  0  0  0  0
    1.8633    7.3575   59.0852 O   0  0  0  0  0
    2.5834    4.0052   59.6418 O   0  0  0  0  0
    4.7556    0.8546   54.6317 O   0  0  0  0  0
    6.2706    3.1213   55.2282 O   0  0  0  0  0
    2.3793    7.6194   54.6101 O   0  0  0  0  0
  1 43  1  0  0  0
  2 43  1  0  0  0
  3  4  1  0  0  0
  5  6  1  0  0  0
  7 44  1  0  0  0
  7  2  1  0  0  0
  8  4  1  0  0  0
  8 45  1  0  0  0
  8  9  1  0  0  0
  9 10  1  0  0  0
  9 47  1  0  0  0
 10 46  1  0  0  0
 11 47  1  0  0  0
 12 48  1  0  0  0
 12 14  1  0  0  0
 13 48  1  0  0  0
 15 16  1  0  0  0
 17 49  1  0  0  0
 17 11  1  0  0  0
 18 49  1  0  0  0
 19 15  1  0  0  0
 19 50  1  0  0  0
 20 50  1  0  0  0
 21 20  1  0  0  0
 21 22  1  0  0  0
 22 23  1  0  0  0
 22 19  1  0  0  0
 23 51  1  0  0  0
 24 51  1  0  0  0
 24 25  1  0  0  0
 24 21  1  0  0  0
 26 27  1  0  0  0
 27 52  1  0  0  0
 28 52  1  0  0  0
 29 53  1  0  0  0
 29 40  1  0  0  0
 30 53  1  0  0  0
 30 31  1  0  0  0
 30 32  1  0  0  0
 31 54  1  0  0  0
 32 55  1  0  0  0
 32 33  1  0  0  0
 34 35  1  0  0  0
 36 56  1  0  0  0
 36 37  1  0  0  0
 37 57  1  0  0  0
 38 57  1  0  0  0
 39 33  1  0  0  0
 40 58  1  0  0  0
 41 58  1  0  0  0
 42 25  1  0  0  0
  2  3  2  0  0  0
  4  5  2  0  0  0
  6  7  2  0  0  0
 11 12  2  0  0  0
 14 15  2  0  0  0
 16 17  2  0  0  0
 25 26  2  0  0  0
 27 29  2  0  0  0
 33 34  2  0  0  0
 35 36  2  0  0  0
 37 39  2  0  0  0
 40 42  2  0  0  0
M  END
> <rmsd>
0.709400237

$$$$
MolPort-047-153-869 PubChem-137347727


 67 71  0  0  0  0  0  0  0  0999 V2000
    5.2272   -0.1991   50.5726 C   0  0  0  0  0
    6.1574    0.7587   51.3109 C   0  0  0  0  0
    5.4379    1.6235   52.3600 C   0  0  0  0  0
    4.7791    0.7170   53.3928 C   0  0  0  0  0
    4.3685    2.4608   51.6701 C   0  0  0  0  0
    6.4215    2.5436   53.0610 C   0  0  0  0  0
    5.9904    3.4447   54.1642 C   0  0  0  0  0
    8.3025    3.6547   55.1641 C   0  0  0  0  0
    8.5808    3.4033   56.6484 C   0  0  0  0  0
    8.0141    4.4926   57.5713 C   0  0  0  0  0
    7.5346    5.7280   56.8114 C   0  0  0  0  0
    6.4986    5.3227   55.7619 C   0  0  0  0  0
    6.1883    6.4751   54.8639 C   0  0  0  0  0
    4.4646    7.9778   53.9172 C   0  0  0  0  0
    3.1866    8.6672   54.4089 C   0  0  0  0  0
    1.9812    7.7340   54.5421 C   0  0  0  0  0
    2.1111    6.8120   55.7100 C   0  0  0  0  0
    2.1784    7.3164   57.0122 C   0  0  0  0  0
    2.3169    6.4476   58.1075 C   0  0  0  0  0
    2.3832    5.0628   57.8899 C   0  0  0  0  0
    2.3044    4.5627   56.5799 C   0  0  0  0  0
    2.1676    5.4334   55.4971 C   0  0  0  0  0
    2.5680    2.7902   58.8540 C   0  0  0  0  0
    2.3566    8.3253   59.7215 C   0  0  0  0  0
    4.3246    7.4303   52.5269 C   0  0  0  0  0
    4.9154    8.1169   51.4608 C   0  0  0  0  0
    4.8085    7.6296   50.1532 C   0  0  0  0  0
    4.0950    6.4440   49.9174 C   0  0  0  0  0
    3.5054    5.7521   50.9780 C   0  0  0  0  0
    3.6206    6.2425   52.2807 C   0  0  0  0  0
    5.4756    7.9972   47.7078 C   0  0  0  0  0
    5.9658    8.9872   46.7063 C   0  0  0  0  0
    4.8196    9.5140   45.8527 C   0  0  0  0  0
    3.8669   11.4895   46.1720 C   0  0  0  0  0
    2.4318   11.9563   46.0051 C   0  0  0  0  0
    0.8342   10.5715   45.3255 C   0  0  0  0  0
   -0.5122   11.1285   44.8928 C   0  0  0  0  0
   -0.8849   12.4002   42.7505 C   0  0  0  0  0
   -0.9411   12.3985   41.2578 C   0  0  0  0  0
   -1.0080   14.7636   40.5091 C   0  0  0  0  0
   -2.3960   14.8563   40.6901 C   0  0  0  0  0
   -3.0628   16.0647   40.4705 C   0  0  0  0  0
   -2.3425   17.2061   40.0518 C   0  0  0  0  0
   -0.9552   17.0980   39.8616 C   0  0  0  0  0
   -0.2950   15.8885   40.0886 C   0  0  0  0  0
   -4.5056   18.4340   39.7481 C   0  0  0  0  0
   -5.0737   17.5144   40.8203 C   0  0  0  0  0
   -4.5581   16.0972   40.6000 C   0  0  0  0  0
   -2.3669   19.7225   39.6743 C   0  0  0  0  0
   -3.0863   20.9119   39.1287 C   0  0  0  0  0
    7.6280    2.5627   52.6886 O   0  0  0  0  0
    4.7574    3.5981   54.3845 O   0  0  0  0  0
    7.0880    6.9720   54.1308 O   0  0  0  0  0
    4.8854    6.9714   54.8329 O   0  0  0  0  0
    2.5271    4.2056   58.9856 O   0  0  0  0  0
    2.3928    6.9374   59.4157 O   0  0  0  0  0
    5.1252    6.8474   47.3294 O   0  0  0  0  0
    3.8826   10.1774   46.6486 O   0  0  0  0  0
    1.8724   11.3832   44.8601 O   0  0  0  0  0
   -1.1389   13.4541   43.3950 O   0  0  0  0  0
   -0.3181   13.5664   40.7292 O   0  0  0  0  0
   -1.1595   19.8551   40.0078 O   0  0  0  0  0
    6.9414    4.1598   54.9782 N   0  0  0  0  0
    5.4049    8.3799   49.0869 N   0  0  0  0  0
   -0.5892   11.1867   43.4399 N   0  0  0  0  0
   -3.0428   18.4551   39.8266 N   0  0  0  0  0
   -2.7468   21.0747   37.3878 Cl  0  0  0  0  0
  1  2  1  0  0  0
  2  3  1  0  0  0
  3  4  1  0  0  0
  3  5  1  0  0  0
  3  6  1  0  0  0
  6  7  1  0  0  0
  7 63  1  0  0  0
  8 63  1  0  0  0
  8  9  1  0  0  0
  9 10  1  0  0  0
 10 11  1  0  0  0
 11 12  1  0  0  0
 12 13  1  0  0  0
 12 63  1  0  0  0
 13 54  1  0  0  0
 14 54  1  0  0  0
 14 15  1  0  0  0
 14 25  1  0  0  0
 15 16  1  0  0  0
 16 17  1  0  0  0
 18 19  1  0  0  0
 19 56  1  0  0  0
 20 21  1  0  0  0
 20 55  1  0  0  0
 22 17  1  0  0  0
 23 55  1  0  0  0
 24 56  1  0  0  0
 26 27  1  0  0  0
 27 64  1  0  0  0
 28 29  1  0  0  0
 30 25  1  0  0  0
 32 31  1  0  0  0
 32 33  1  0  0  0
 33 58  1  0  0  0
 34 58  1  0  0  0
 34 35  1  0  0  0
 35 59  1  0  0  0
 36 59  1  0  0  0
 36 37  1  0  0  0
 37 65  1  0  0  0
 39 38  1  0  0  0
 39 61  1  0  0  0
 40 61  1  0  0  0
 41 42  1  0  0  0
 43 44  1  0  0  0
 43 66  1  0  0  0
 45 40  1  0  0  0
 46 66  1  0  0  0
 46 47  1  0  0  0
 47 48  1  0  0  0
 48 42  1  0  0  0
 50 49  1  0  0  0
 50 67  1  0  0  0
 64 31  1  0  0  0
 65 38  1  0  0  0
 66 49  1  0  0  0
  6 51  2  0  0  0
  7 52  2  0  0  0
 13 53  2  0  0  0
 17 18  2  0  0  0
 19 20  2  0  0  0
 21 22  2  0  0  0
 25 26  2  0  0  0
 27 28  2  0  0  0
 29 30  2  0  0  0
 31 57  2  0  0  0
 38 60  2  0  0  0
 40 41  2  0  0  0
 42 43  2  0  0  0
 44 45  2  0  0  0
 49 62  2  0  0  0
M  END
> <rmsd>
0.717969835

$$$$
MolPort-047-915-752


 66 72  0  0  0  0  0  0  0  0999 V2000
    4.2234    7.7390   48.6283 C   0  0  0  0  0
    2.8477    8.1347   50.3233 C   0  0  0  0  0
    3.0912    8.9800   51.5417 C   0  0  0  0  0
    4.4980    9.5740   51.6180 C   0  0  0  0  0
    2.7065    8.0720   52.7072 C   0  0  0  0  0
    1.7318    7.1967   50.8095 C   0  0  0  0  0
    1.9167    5.7691   50.3030 C   0  0  0  0  0
    0.3592    7.6863   50.3118 C   0  0  0  0  0
   -0.0756    8.9959   50.9485 C   0  0  0  0  0
   -0.6534    9.7824   49.8147 C   0  0  0  0  0
   -0.6020    8.8227   48.6429 C   0  0  0  0  0
   -0.2822    9.5284   47.3235 C   0  0  0  0  0
    1.0766   10.2037   47.3337 C   0  0  0  0  0
    0.8066   11.5145   46.6796 C   0  0  0  0  0
   -0.6621   11.7280   46.9615 C   0  0  0  0  0
   -1.3212   12.6254   45.9045 C   0  0  0  0  0
   -0.9582   14.4728   44.5417 C   0  0  0  0  0
    0.0446   15.5713   44.2261 C   0  0  0  0  0
   -2.3477   15.0896   44.8296 C   0  0  0  0  0
   -2.2930   16.1782   45.8979 C   0  0  0  0  0
   -3.3414   14.0106   45.2682 C   0  0  0  0  0
   -5.1286   13.5128   44.0503 C   0  0  0  0  0
   -5.4226   14.3042   42.7815 C   0  0  0  0  0
   -6.9073   14.6368   42.7622 C   0  0  0  0  0
   -7.7470   13.3706   42.9497 C   0  0  0  0  0
   -9.0595   12.5662   41.3590 C   0  0  0  0  0
   -7.2173   12.5298   44.1231 C   0  0  0  0  0
   -7.6279   13.0942   45.4803 C   0  0  0  0  0
   -2.7241   13.0995   46.3431 C   0  0  0  0  0
   -3.6753   11.9548   46.6725 C   0  0  0  0  0
    3.7851    6.8863   54.4922 C   0  0  0  0  0
    4.5780    5.5976   54.6429 C   0  0  0  0  0
    5.0827    5.4302   56.0773 C   0  0  0  0  0
    4.3709    5.3288   58.2794 C   0  0  0  0  0
    3.1268    5.1094   59.1608 C   0  0  0  0  0
    2.0279    6.0850   58.8489 C   0  0  0  0  0
    5.4639    4.3005   58.6594 C   0  0  0  0  0
    5.9585    4.5086   60.0869 C   0  0  0  0  0
    6.6370    4.3649   57.6724 C   0  0  0  0  0
    8.7569    4.0370   58.2419 C   0  0  0  0  0
    6.1511    4.3278   56.2009 C   0  0  0  0  0
    7.3199    4.6920   55.2720 C   0  0  0  0  0
    6.4932    2.0678   55.7232 C   0  0  0  0  0
    2.3617    6.7002   55.0308 C   0  0  0  0  0
    1.6306    8.0400   55.0196 C   0  0  0  0  0
   -0.2467    8.4209   56.1242 C   0  0  0  0  0
    2.0649    8.9194   53.8408 C   0  0  0  0  0
    2.9957   10.0075   54.3598 C   0  0  0  0  0
    4.0066    7.4246   49.9710 O   0  0  0  0  0
    1.7311    7.1653   52.2233 O   0  0  0  0  0
    0.3468    7.8258   48.9120 O   0  0  0  0  0
   -1.2838   10.4674   47.0040 O   0  0  0  0  0
   -0.4934   13.7521   45.6690 O   0  0  0  0  0
   -1.0278   13.6386   43.4180 O   0  0  0  0  0
   -3.7575   13.2706   44.1525 O   0  0  0  0  0
   -7.7294   12.6102   41.7778 O   0  0  0  0  0
   -5.8253   12.2842   44.0348 O   0  0  0  0  0
    3.8442    7.3204   53.1368 O   0  0  0  0  0
    3.9897    5.1505   56.9268 O   0  0  0  0  0
    4.8503    6.6332   58.4855 O   0  0  0  0  0
    2.6563    3.7992   59.0256 O   0  0  0  0  0
    0.8566    5.6579   58.2351 O   0  0  0  0  0
    2.1603    7.2987   59.1515 O   0  0  0  0  0
    7.5724    3.3593   57.9468 O   0  0  0  0  0
    5.5364    3.0887   55.8621 O   0  0  0  0  0
    0.2533    7.8190   54.9694 O   0  0  0  0  0
  1 49  1  0  0  0
  2 49  1  0  0  0
  2  3  1  0  0  0
  3  4  1  0  0  0
  3  5  1  0  0  0
  5 50  1  0  0  0
  5 58  1  0  0  0
  6 50  1  0  0  0
  6  7  1  0  0  0
  6  8  1  0  0  0
  6  2  1  0  0  0
  8  9  1  0  0  0
  8 51  1  0  0  0
  9 10  1  0  0  0
 10 11  1  0  0  0
 11 51  1  0  0  0
 11 12  1  0  0  0
 12 13  1  0  0  0
 12 52  1  0  0  0
 13 14  1  0  0  0
 14 15  1  0  0  0
 15 52  1  0  0  0
 15 16  1  0  0  0
 16 53  1  0  0  0
 17 53  1  0  0  0
 17 18  1  0  0  0
 17 54  1  0  0  0
 17 19  1  0  0  0
 19 20  1  0  0  0
 19 21  1  0  0  0
 21 55  1  0  0  0
 21 29  1  0  0  0
 22 55  1  0  0  0
 22 23  1  0  0  0
 22 57  1  0  0  0
 23 24  1  0  0  0
 24 25  1  0  0  0
 25 56  1  0  0  0
 25 27  1  0  0  0
 26 56  1  0  0  0
 27 28  1  0  0  0
 27 57  1  0  0  0
 29 30  1  0  0  0
 29 16  1  0  0  0
 31 58  1  0  0  0
 31 32  1  0  0  0
 31 44  1  0  0  0
 32 33  1  0  0  0
 33 59  1  0  0  0
 34 59  1  0  0  0
 34 60  1  0  0  0
 34 35  1  0  0  0
 34 37  1  0  0  0
 35 61  1  0  0  0
 35 36  1  0  0  0
 36 62  1  0  0  0
 37 38  1  0  0  0
 37 39  1  0  0  0
 39 64  1  0  0  0
 39 41  1  0  0  0
 40 64  1  0  0  0
 41 42  1  0  0  0
 41 65  1  0  0  0
 41 33  1  0  0  0
 43 65  1  0  0  0
 44 45  1  0  0  0
 45 66  1  0  0  0
 45 47  1  0  0  0
 46 66  1  0  0  0
 47 48  1  0  0  0
 47  5  1  0  0  0
 36 63  2  0  0  0
M  END
> <rmsd>
0.734922349

$$$$
MolPort-047-915-752


 66 72  0  0  0  0  0  0  0  0999 V2000
    8.6485    9.6309   48.5315 C   0  0  0  0  0
    7.2913    9.0452   50.1752 C   0  0  0  0  0
    7.5124    7.9207   51.1398 C   0  0  0  0  0
    6.8017    6.6867   50.6021 C   0  0  0  0  0
    6.9047    8.4356   52.4495 C   0  0  0  0  0
    6.2564    9.9504   50.8672 C   0  0  0  0  0
    6.7936   11.3531   51.1539 C   0  0  0  0  0
    5.0026   10.0958   49.9850 C   0  0  0  0  0
    4.2736    8.7778   49.7655 C   0  0  0  0  0
    4.0805    8.7135   48.2841 C   0  0  0  0  0
    5.1143    9.6834   47.7696 C   0  0  0  0  0
    4.6901   10.2890   46.4364 C   0  0  0  0  0
    5.7875   11.1646   45.8767 C   0  0  0  0  0
    5.0531   12.2999   45.2308 C   0  0  0  0  0
    3.6029   12.0887   45.6307 C   0  0  0  0  0
    2.7055   11.7731   44.4243 C   0  0  0  0  0
    2.3292   10.2490   42.7141 C   0  0  0  0  0
    2.9136    9.0262   42.0263 C   0  0  0  0  0
    2.0406   11.3580   41.6688 C   0  0  0  0  0
    3.2566   11.6746   40.8041 C   0  0  0  0  0
    1.5632   12.6427   42.3523 C   0  0  0  0  0
   -0.5225   13.2690   41.9121 C   0  0  0  0  0
   -1.3108   12.3685   40.9491 C   0  0  0  0  0
   -2.5649   13.0769   40.4270 C   0  0  0  0  0
   -2.3704   14.5945   40.4157 C   0  0  0  0  0
   -3.2383   15.9600   38.9067 C   0  0  0  0  0
   -1.9232   15.0984   41.8036 C   0  0  0  0  0
   -0.9528   16.2625   41.6813 C   0  0  0  0  0
    2.4891   13.0033   43.5250 C   0  0  0  0  0
    1.9368   14.1917   44.3009 C   0  0  0  0  0
    5.8096    7.7331   54.4623 C   0  0  0  0  0
    6.3455    6.7925   55.5271 C   0  0  0  0  0
    5.7135    5.4024   55.3857 C   0  0  0  0  0
    4.2198    5.4563   57.2482 C   0  0  0  0  0
    2.7243    5.1947   57.5471 C   0  0  0  0  0
    2.2991    5.4564   58.9622 C   0  0  0  0  0
    5.1003    4.4064   57.9939 C   0  0  0  0  0
    5.1215    4.6314   59.5024 C   0  0  0  0  0
    6.5391    4.4001   57.4690 C   0  0  0  0  0
    8.3270    4.1083   58.7482 C   0  0  0  0  0
    6.5475    4.2403   55.9383 C   0  0  0  0  0
    7.9729    4.3574   55.3771 C   0  0  0  0  0
    6.6906    1.9117   55.8271 C   0  0  0  0  0
    6.0473    9.1866   54.9050 C   0  0  0  0  0
    7.4941    9.6040   54.6582 C   0  0  0  0  0
    8.4732   11.1921   55.8461 C   0  0  0  0  0
    8.0046    9.1467   53.2882 C   0  0  0  0  0
    9.2222    8.2577   53.5078 C   0  0  0  0  0
    8.4998    9.6932   49.9182 O   0  0  0  0  0
    5.8919    9.3609   52.0980 O   0  0  0  0  0
    5.3165   10.6811   48.7391 O   0  0  0  0  0
    3.5217   11.0570   46.5833 O   0  0  0  0  0
    3.2584   10.7004   43.6822 O   0  0  0  0  0
    1.1356    9.8494   43.3279 O   0  0  0  0  0
    0.2383   12.4858   42.7822 O   0  0  0  0  0
   -3.5637   15.2227   40.0443 O   0  0  0  0  0
   -1.4000   14.0891   42.6533 O   0  0  0  0  0
    6.3446    7.3595   53.1912 O   0  0  0  0  0
    4.3647    5.3581   55.8298 O   0  0  0  0  0
    4.5487    6.7536   57.6683 O   0  0  0  0  0
    1.9113    5.9329   56.6813 O   0  0  0  0  0
    1.8485    4.4043   59.7486 O   0  0  0  0  0
    2.3173    6.6247   59.4331 O   0  0  0  0  0
    7.3012    3.4124   58.1050 O   0  0  0  0  0
    5.9097    3.0399   55.5158 O   0  0  0  0  0
    7.6097   10.9906   54.7687 O   0  0  0  0  0
  1 49  1  0  0  0
  2 49  1  0  0  0
  2  3  1  0  0  0
  3  4  1  0  0  0
  3  5  1  0  0  0
  5 50  1  0  0  0
  5 58  1  0  0  0
  6 50  1  0  0  0
  6  7  1  0  0  0
  6  8  1  0  0  0
  6  2  1  0  0  0
  8  9  1  0  0  0
  8 51  1  0  0  0
  9 10  1  0  0  0
 10 11  1  0  0  0
 11 51  1  0  0  0
 11 12  1  0  0  0
 12 13  1  0  0  0
 12 52  1  0  0  0
 13 14  1  0  0  0
 14 15  1  0  0  0
 15 52  1  0  0  0
 15 16  1  0  0  0
 16 53  1  0  0  0
 17 53  1  0  0  0
 17 18  1  0  0  0
 17 54  1  0  0  0
 17 19  1  0  0  0
 19 20  1  0  0  0
 19 21  1  0  0  0
 21 55  1  0  0  0
 21 29  1  0  0  0
 22 55  1  0  0  0
 22 23  1  0  0  0
 22 57  1  0  0  0
 23 24  1  0  0  0
 24 25  1  0  0  0
 25 56  1  0  0  0
 25 27  1  0  0  0
 26 56  1  0  0  0
 27 28  1  0  0  0
 27 57  1  0  0  0
 29 30  1  0  0  0
 29 16  1  0  0  0
 31 58  1  0  0  0
 31 32  1  0  0  0
 31 44  1  0  0  0
 32 33  1  0  0  0
 33 59  1  0  0  0
 34 59  1  0  0  0
 34 60  1  0  0  0
 34 35  1  0  0  0
 34 37  1  0  0  0
 35 61  1  0  0  0
 35 36  1  0  0  0
 36 62  1  0  0  0
 37 38  1  0  0  0
 37 39  1  0  0  0
 39 64  1  0  0  0
 39 41  1  0  0  0
 40 64  1  0  0  0
 41 42  1  0  0  0
 41 65  1  0  0  0
 41 33  1  0  0  0
 43 65  1  0  0  0
 44 45  1  0  0  0
 45 66  1  0  0  0
 45 47  1  0  0  0
 46 66  1  0  0  0
 47 48  1  0  0  0
 47  5  1  0  0  0
 36 63  2  0  0  0
M  END
> <rmsd>
0.679899991

$$$$
MolPort-047-915-752


 66 72  0  0  0  0  0  0  0  0999 V2000
    7.8893   10.3721   48.4200 C   0  0  0  0  0
    6.6464    9.6715   50.1086 C   0  0  0  0  0
    6.9389    8.4935   50.9864 C   0  0  0  0  0
    6.2052    7.2857   50.4210 C   0  0  0  0  0
    6.4132    8.9207   52.3615 C   0  0  0  0  0
    5.6510   10.5204   50.9197 C   0  0  0  0  0
    6.1941   11.9097   51.2565 C   0  0  0  0  0
    4.3415   10.7035   50.1305 C   0  0  0  0  0
    3.6109    9.3924   49.8780 C   0  0  0  0  0
    3.3226    9.4155   48.4109 C   0  0  0  0  0
    4.3127   10.4273   47.8913 C   0  0  0  0  0
    3.7980   11.1073   46.6277 C   0  0  0  0  0
    4.8494   12.0285   46.0532 C   0  0  0  0  0
    4.0653   13.1917   45.5265 C   0  0  0  0  0
    2.6459   12.9389   46.0051 C   0  0  0  0  0
    1.6748   12.6860   44.8417 C   0  0  0  0  0
    1.2011   11.2636   43.0692 C   0  0  0  0  0
    1.7498   10.0919   42.2718 C   0  0  0  0  0
    0.8361   12.4302   42.1144 C   0  0  0  0  0
    1.9908   12.8134   41.1944 C   0  0  0  0  0
    0.3934   13.6653   42.9045 C   0  0  0  0  0
   -1.7217   14.2915   42.6383 C   0  0  0  0  0
   -2.5633   13.4413   41.6746 C   0  0  0  0  0
   -3.8544   14.1645   41.2785 C   0  0  0  0  0
   -3.6737   15.6823   41.3475 C   0  0  0  0  0
   -4.6490   17.1258   39.9838 C   0  0  0  0  0
   -3.1416   16.1067   42.7321 C   0  0  0  0  0
   -2.1909   17.2879   42.6192 C   0  0  0  0  0
    1.3903   13.9656   44.0352 C   0  0  0  0  0
    0.8796   15.0980   44.9161 C   0  0  0  0  0
    5.4568    8.0844   54.3937 C   0  0  0  0  0
    6.0684    7.0877   55.3623 C   0  0  0  0  0
    5.4402    5.7010   55.1770 C   0  0  0  0  0
    4.0700    5.6238   57.1314 C   0  0  0  0  0
    2.5994    5.3263   57.5092 C   0  0  0  0  0
    2.2646    5.4967   58.9621 C   0  0  0  0  0
    5.0058    4.5416   57.7534 C   0  0  0  0  0
    5.1228    4.6751   59.2684 C   0  0  0  0  0
    6.4075    4.5847   57.1378 C   0  0  0  0  0
    8.2770    4.2380   58.2793 C   0  0  0  0  0
    6.3179    4.5179   55.6029 C   0  0  0  0  0
    7.7029    4.6862   54.9595 C   0  0  0  0  0
    6.4729    2.2023   55.3404 C   0  0  0  0  0
    5.7106    9.5112   54.9083 C   0  0  0  0  0
    7.1348    9.9604   54.5951 C   0  0  0  0  0
    8.1757   11.4856   55.8126 C   0  0  0  0  0
    7.5592    9.5931   53.1698 C   0  0  0  0  0
    8.7959    8.7075   53.2559 C   0  0  0  0  0
    7.8303   10.3486   49.8146 O   0  0  0  0  0
    5.3721    9.8531   52.1330 O   0  0  0  0  0
    4.5691   11.3669   48.9050 O   0  0  0  0  0
    2.6352   11.8506   46.8960 O   0  0  0  0  0
    2.1873   11.6670   44.0015 O   0  0  0  0  0
    0.0531   10.8130   43.7328 O   0  0  0  0  0
   -0.8995   13.4664   43.4082 O   0  0  0  0  0
   -4.8937   16.3171   41.0927 O   0  0  0  0  0
   -2.5561   15.0544   43.4831 O   0  0  0  0  0
    5.9114    7.7949   53.0704 O   0  0  0  0  0
    4.1235    5.6134   55.7033 O   0  0  0  0  0
    4.4147    6.8972   57.6082 O   0  0  0  0  0
    1.7257    6.1056   56.7442 O   0  0  0  0  0
    1.8748    4.3935   59.7099 O   0  0  0  0  0
    2.3035    6.6344   59.5014 O   0  0  0  0  0
    7.2174    3.5697   57.6620 O   0  0  0  0  0
    5.6641    3.3376   55.1496 O   0  0  0  0  0
    7.2459   11.3391   54.7825 O   0  0  0  0  0
  1 49  1  0  0  0
  2 49  1  0  0  0
  2  3  1  0  0  0
  3  4  1  0  0  0
  3  5  1  0  0  0
  5 50  1  0  0  0
  5 58  1  0  0  0
  6 50  1  0  0  0
  6  7  1  0  0  0
  6  8  1  0  0  0
  6  2  1  0  0  0
  8  9  1  0  0  0
  8 51  1  0  0  0
  9 10  1  0  0  0
 10 11  1  0  0  0
 11 51  1  0  0  0
 11 12  1  0  0  0
 12 13  1  0  0  0
 12 52  1  0  0  0
 13 14  1  0  0  0
 14 15  1  0  0  0
 15 52  1  0  0  0
 15 16  1  0  0  0
 16 53  1  0  0  0
 17 53  1  0  0  0
 17 18  1  0  0  0
 17 54  1  0  0  0
 17 19  1  0  0  0
 19 20  1  0  0  0
 19 21  1  0  0  0
 21 55  1  0  0  0
 21 29  1  0  0  0
 22 55  1  0  0  0
 22 23  1  0  0  0
 22 57  1  0  0  0
 23 24  1  0  0  0
 24 25  1  0  0  0
 25 56  1  0  0  0
 25 27  1  0  0  0
 26 56  1  0  0  0
 27 28  1  0  0  0
 27 57  1  0  0  0
 29 30  1  0  0  0
 29 16  1  0  0  0
 31 58  1  0  0  0
 31 32  1  0  0  0
 31 44  1  0  0  0
 32 33  1  0  0  0
 33 59  1  0  0  0
 34 59  1  0  0  0
 34 60  1  0  0  0
 34 35  1  0  0  0
 34 37  1  0  0  0
 35 61  1  0  0  0
 35 36  1  0  0  0
 36 62  1  0  0  0
 37 38  1  0  0  0
 37 39  1  0  0  0
 39 64  1  0  0  0
 39 41  1  0  0  0
 40 64  1  0  0  0
 41 42  1  0  0  0
 41 65  1  0  0  0
 41 33  1  0  0  0
 43 65  1  0  0  0
 44 45  1  0  0  0
 45 66  1  0  0  0
 45 47  1  0  0  0
 46 66  1  0  0  0
 47 48  1  0  0  0
 47  5  1  0  0  0
 36 63  2  0  0  0
M  END
> <rmsd>
0.751450121

$$$$
MolPort-046-856-603 MolPort-047-897-968 PubChem-3082004


 66 68  0  0  0  0  0  0  0  0999 V2000
   -9.0125   16.4972   36.7851 C   0  0  0  0  0
   -8.0694   17.4654   36.1028 C   0  0  0  0  0
   -8.8622   18.6099   35.5094 C   0  0  0  0  0
   -7.9123   19.5933   34.8597 C   0  0  0  0  0
   -8.6924   20.7827   34.3286 C   0  0  0  0  0
   -7.7411   21.8532   33.8212 C   0  0  0  0  0
   -7.0430   22.5209   34.9911 C   0  0  0  0  0
   -6.0040   23.5037   34.4870 C   0  0  0  0  0
   -5.1460   23.9736   35.6478 C   0  0  0  0  0
   -4.1728   22.8792   36.0421 C   0  0  0  0  0
   -3.7492   23.0653   37.4871 C   0  0  0  0  0
   -2.9151   21.8796   37.9549 C   0  0  0  0  0
   -3.7378   20.5983   37.9998 C   0  0  0  0  0
   -4.7295   20.6323   39.1519 C   0  0  0  0  0
   -5.6893   19.4543   39.0605 C   0  0  0  0  0
   -4.9913   18.1393   39.3824 C   0  0  0  0  0
   -4.7596   17.9951   40.8543 C   0  0  0  0  0
   -2.9343   16.1150   41.1732 C   0  0  0  0  0
   -3.8048   15.3034   42.1229 C   0  0  0  0  0
   -2.0272   14.5916   43.7873 C   0  0  0  0  0
   -1.6120   14.4621   45.2100 C   0  0  0  0  0
   -2.2905   13.2494   45.8155 C   0  0  0  0  0
   -2.8780   13.1185   48.2613 C   0  0  0  0  0
   -2.4719   12.7958   49.6695 C   0  0  0  0  0
   -2.2757   11.2848   49.9276 C   0  0  0  0  0
   -1.1151   10.7237   49.1159 C   0  0  0  0  0
   -3.5334   10.5263   49.5411 C   0  0  0  0  0
   -2.0458   11.0201   51.4143 C   0  0  0  0  0
    1.9435    7.6449   55.7060 C   0  0  0  0  0
    1.8840    6.1497   55.4557 C   0  0  0  0  0
    2.2753    5.4074   56.7091 C   0  0  0  0  0
    3.0437    4.2275   56.1857 C   0  0  0  0  0
    3.5912    4.7557   54.8787 C   0  0  0  0  0
    5.4199    6.5122   54.9857 C   0  0  0  0  0
    7.1249    5.3238   55.4134 C   0  0  0  0  0
    6.0520    4.5082   55.3284 C   0  0  0  0  0
    7.3719    2.6285   55.7397 C   0  0  0  0  0
    8.3791    4.7917   55.6760 C   0  0  0  0  0
   -5.7074   17.9215   41.6214 O   0  0  0  0  0
   -1.3403   14.0410   42.8849 O   0  0  0  0  0
   -4.0869   13.3707   48.0113 O   0  0  0  0  0
   -0.8038   11.5035   51.8414 O   0  0  0  0  0
   -1.3226   10.7154   54.2827 O   0  0  0  0  0
   -0.3955    8.8902   52.6403 O   0  0  0  0  0
    1.2251   10.9398   53.6123 O   0  0  0  0  0
    0.7640   10.3115   56.1330 O   0  0  0  0  0
    3.2545   10.3257   55.3625 O   0  0  0  0  0
    1.5188    8.3317   54.5678 O   0  0  0  0  0
    2.7631    5.7991   54.4108 O   0  0  0  0  0
    2.1914    3.1522   55.9182 O   0  0  0  0  0
    1.1381    5.0217   57.4295 O   0  0  0  0  0
    1.7185    6.8376   59.2479 O   0  0  0  0  0
    0.1833    4.8672   60.0121 O   0  0  0  0  0
    2.8712    4.5021   59.5360 O   0  0  0  0  0
   -1.3333   13.5312   50.0158 O   0  0  0  0  0
   -3.0871   17.9005   41.4947 S   0  0  0  0  0
   -3.2386   15.2801   43.4658 N   0  0  0  0  0
   -1.9068   13.1116   47.2104 N   0  0  0  0  0
    4.9614    5.2342   55.0624 N   0  0  0  0  0
    6.7631    6.6022   55.2015 N   0  0  0  0  0
    6.1392    3.1637   55.4829 N   0  0  0  0  0
    8.4769    3.4373   55.8339 N   0  0  0  0  0
    9.5331    5.6194   55.7695 N   0  0  0  0  0
   -0.3531   10.5087   53.1386 P   0  0  0  0  0
    1.6506    9.9785   54.9525 P   0  0  0  0  0
    1.4895    5.3544   59.0572 P   0  0  0  0  0
  1  2  1  0  0  0
  2  3  1  0  0  0
  3  4  1  0  0  0
  4  5  1  0  0  0
  5  6  1  0  0  0
  6  7  1  0  0  0
  7  8  1  0  0  0
  8  9  1  0  0  0
  9 10  1  0  0  0
 10 11  1  0  0  0
 11 12  1  0  0  0
 12 13  1  0  0  0
 13 14  1  0  0  0
 14 15  1  0  0  0
 15 16  1  0  0  0
 16 17  1  0  0  0
 17 56  1  0  0  0
 18 56  1  0  0  0
 18 19  1  0  0  0
 19 57  1  0  0  0
 21 20  1  0  0  0
 21 22  1  0  0  0
 22 58  1  0  0  0
 24 23  1  0  0  0
 24 25  1  0  0  0
 24 55  1  0  0  0
 25 26  1  0  0  0
 25 27  1  0  0  0
 25 28  1  0  0  0
 28 42  1  0  0  0
 29 48  1  0  0  0
 30 29  1  0  0  0
 30 31  1  0  0  0
 30 49  1  0  0  0
 31 32  1  0  0  0
 31 51  1  0  0  0
 32 33  1  0  0  0
 32 50  1  0  0  0
 33 49  1  0  0  0
 33 59  1  0  0  0
 35 60  1  0  0  0
 36 61  1  0  0  0
 36 59  1  0  0  0
 37 62  1  0  0  0
 38 63  1  0  0  0
 38 35  1  0  0  0
 57 20  1  0  0  0
 58 23  1  0  0  0
 59 34  1  0  0  0
 64 42  1  0  0  0
 64 44  1  0  0  0
 64 45  1  0  0  0
 65 45  1  0  0  0
 65 47  1  0  0  0
 65 48  1  0  0  0
 66 51  1  0  0  0
 66 53  1  0  0  0
 66 54  1  0  0  0
 17 39  2  0  0  0
 20 40  2  0  0  0
 23 41  2  0  0  0
 34 60  2  0  0  0
 35 36  2  0  0  0
 37 61  2  0  0  0
 38 62  2  0  0  0
 64 43  2  0  0  0
 65 46  2  0  0  0
 66 52  2  0  0  0
M  END
> <rmsd>
0.682421327

$$$$
MolPort-047-483-983


 86 88  0  0  0  0  0  0  0  0999 V2000
    3.5724   15.9534   37.9282 C   0  0  0  0  0
    3.4201   15.9863   39.4323 C   0  0  0  0  0
    2.7660   14.7037   39.9014 C   0  0  0  0  0
    2.5434   14.7671   41.3967 C   0  0  0  0  0
    1.8428   13.4995   41.8589 C   0  0  0  0  0
    1.4945   13.5492   43.3437 C   0  0  0  0  0
    2.7588   13.5209   44.1951 C   0  0  0  0  0
    2.4185   13.2964   45.6619 C   0  0  0  0  0
    3.4882   12.4663   46.3728 C   0  0  0  0  0
    4.8399   13.1134   46.4850 C   0  0  0  0  0
    7.1760   12.9292   47.2725 C   0  0  0  0  0
    8.1735   11.7949   47.4811 C   0  0  0  0  0
    9.6028   12.2740   47.2776 C   0  0  0  0  0
    9.8819   12.4882   45.7982 C   0  0  0  0  0
   11.2944   13.0071   45.5973 C   0  0  0  0  0
   11.3760   14.4739   45.9757 C   0  0  0  0  0
    7.2070   13.9310   48.4329 C   0  0  0  0  0
    6.8694   13.2930   49.7761 C   0  0  0  0  0
    5.3636   13.1711   49.9416 C   0  0  0  0  0
    5.0269   12.1337   50.9555 C   0  0  0  0  0
    4.0445    9.9220   51.4508 C   0  0  0  0  0
    3.0277    8.9975   50.7962 C   0  0  0  0  0
    1.7104    9.7210   50.5453 C   0  0  0  0  0
    0.9513    9.9686   51.8433 C   0  0  0  0  0
    0.1116    8.7576   52.2243 C   0  0  0  0  0
    0.9488    7.7396   52.9785 C   0  0  0  0  0
    5.2967    9.1334   51.8291 C   0  0  0  0  0
    5.1719    8.4227   53.1787 C   0  0  0  0  0
    4.9960    9.4281   54.3135 C   0  0  0  0  0
    4.9038    8.7559   55.6427 C   0  0  0  0  0
    5.9243    7.2086   57.2978 C   0  0  0  0  0
    7.1531    6.3045   57.3888 C   0  0  0  0  0
    7.0711    5.1388   56.4168 C   0  0  0  0  0
    8.2520    4.2179   56.6336 C   0  0  0  0  0
    8.1518    3.0398   55.6881 C   0  0  0  0  0
    9.3220    2.1078   55.9181 C   0  0  0  0  0
    4.6406    6.4671   57.6893 C   0  0  0  0  0
    4.6917    6.0265   59.1576 C   0  0  0  0  0
    4.7196    7.2182   60.1212 C   0  0  0  0  0
    3.4797    8.0680   60.1185 C   0  0  0  0  0
    3.9384    3.8852   58.9653 C   0  0  0  0  0
    2.9611    1.8855   58.2836 C   0  0  0  0  0
    2.1123    1.9729   57.0225 C   0  0  0  0  0
    4.4111    1.4405   57.9915 C   0  0  0  0  0
    5.3183    1.7723   59.1787 C   0  0  0  0  0
    5.1553    3.2233   59.6431 C   0  0  0  0  0
    4.7621    6.2476   53.0629 C   0  0  0  0  0
    5.5404    4.7415   51.6564 C   0  0  0  0  0
    5.7388    4.3934   50.1865 C   0  0  0  0  0
    5.3186    3.5052   52.5501 C   0  0  0  0  0
    4.5055    3.8166   53.8201 C   0  0  0  0  0
    4.3424    5.3007   54.1984 C   0  0  0  0  0
   -0.5417   14.2031   43.9838 C   0  0  0  0  0
   -2.1447   15.0000   42.4333 C   0  0  0  0  0
   -1.3334   16.2065   41.9502 C   0  0  0  0  0
   -3.2104   15.3265   43.5009 C   0  0  0  0  0
   -2.7247   15.0733   44.9275 C   0  0  0  0  0
   -1.2027   15.1514   45.0009 C   0  0  0  0  0
    2.2281   14.5175   46.3113 O   0  0  0  0  0
    5.0495   14.2750   46.0382 O   0  0  0  0  0
    5.8705   12.3932   47.0912 O   0  0  0  0  0
    7.3900   14.0789   50.8036 O   0  0  0  0  0
    5.3066   12.3261   52.1704 O   0  0  0  0  0
    4.3911   10.9616   50.5440 O   0  0  0  0  0
    3.9879    9.0939   56.4399 O   0  0  0  0  0
    5.8330    7.7701   55.9912 O   0  0  0  0  0
    3.4210    9.1766   60.9517 O   0  0  0  0  0
    2.4945    7.7945   59.3818 O   0  0  0  0  0
    3.6409    5.1544   59.4956 O   0  0  0  0  0
    2.8112    3.0469   59.0922 O   0  0  0  0  0
    2.4411    3.1121   56.2857 O   0  0  0  0  0
    4.4415    0.0688   57.7372 O   0  0  0  0  0
    6.6515    1.5407   58.8393 O   0  0  0  0  0
    5.0126    3.2478   61.0314 O   0  0  0  0  0
    4.1274    7.4909   53.1615 O   0  0  0  0  0
    4.5028    5.6680   51.8154 O   0  0  0  0  0
    6.1094    5.5313   49.4710 O   0  0  0  0  0
    4.6810    2.4754   51.8536 O   0  0  0  0  0
    5.0073    3.0906   54.9019 O   0  0  0  0  0
    3.0141    5.5295   54.5599 O   0  0  0  0  0
    0.7232   14.6860   43.6223 O   0  0  0  0  0
   -1.3230   13.9113   42.8241 O   0  0  0  0  0
   -0.6211   15.8643   40.8017 O   0  0  0  0  0
   -3.6888   16.6338   43.3729 O   0  0  0  0  0
   -3.1683   13.8188   45.3539 O   0  0  0  0  0
   -0.7598   14.8635   46.2915 O   0  0  0  0  0
  1  2  1  0  0  0
  2  3  1  0  0  0
  3  4  1  0  0  0
  4  5  1  0  0  0
  5  6  1  0  0  0
  6  7  1  0  0  0
  6 81  1  0  0  0
  7  8  1  0  0  0
  8 59  1  0  0  0
  8  9  1  0  0  0
  9 10  1  0  0  0
 10 61  1  0  0  0
 11 61  1  0  0  0
 11 12  1  0  0  0
 11 17  1  0  0  0
 12 13  1  0  0  0
 13 14  1  0  0  0
 14 15  1  0  0  0
 15 16  1  0  0  0
 17 18  1  0  0  0
 18 62  1  0  0  0
 18 19  1  0  0  0
 19 20  1  0  0  0
 20 64  1  0  0  0
 21 64  1  0  0  0
 21 22  1  0  0  0
 21 27  1  0  0  0
 22 23  1  0  0  0
 23 24  1  0  0  0
 24 25  1  0  0  0
 25 26  1  0  0  0
 27 28  1  0  0  0
 28 29  1  0  0  0
 28 75  1  0  0  0
 29 30  1  0  0  0
 30 66  1  0  0  0
 31 66  1  0  0  0
 31 32  1  0  0  0
 31 37  1  0  0  0
 32 33  1  0  0  0
 33 34  1  0  0  0
 34 35  1  0  0  0
 35 36  1  0  0  0
 37 38  1  0  0  0
 38 39  1  0  0  0
 38 69  1  0  0  0
 39 40  1  0  0  0
 40 67  1  0  0  0
 41 69  1  0  0  0
 41 70  1  0  0  0
 42 70  1  0  0  0
 42 43  1  0  0  0
 42 44  1  0  0  0
 43 71  1  0  0  0
 44 72  1  0  0  0
 44 45  1  0  0  0
 45 73  1  0  0  0
 45 46  1  0  0  0
 46 74  1  0  0  0
 46 41  1  0  0  0
 47 75  1  0  0  0
 47 76  1  0  0  0
 48 76  1  0  0  0
 48 49  1  0  0  0
 48 50  1  0  0  0
 49 77  1  0  0  0
 50 78  1  0  0  0
 50 51  1  0  0  0
 51 79  1  0  0  0
 51 52  1  0  0  0
 52 80  1  0  0  0
 52 47  1  0  0  0
 53 81  1  0  0  0
 53 82  1  0  0  0
 54 82  1  0  0  0
 54 55  1  0  0  0
 54 56  1  0  0  0
 55 83  1  0  0  0
 56 84  1  0  0  0
 56 57  1  0  0  0
 57 85  1  0  0  0
 57 58  1  0  0  0
 58 86  1  0  0  0
 58 53  1  0  0  0
 10 60  2  0  0  0
 20 63  2  0  0  0
 30 65  2  0  0  0
 40 68  2  0  0  0
M  END
> <rmsd>
0.773088217

$$$$
MolPort-047-483-983


 86 88  0  0  0  0  0  0  0  0999 V2000
    3.7420   17.4044   38.8277 C   0  0  0  0  0
    3.3915   17.1982   40.2842 C   0  0  0  0  0
    2.9434   15.7677   40.4978 C   0  0  0  0  0
    2.5199   15.5801   41.9382 C   0  0  0  0  0
    2.0245   14.1569   42.1395 C   0  0  0  0  0
    1.4828   13.9354   43.5487 C   0  0  0  0  0
    2.6067   14.0102   44.5761 C   0  0  0  0  0
    2.1284   13.5254   45.9377 C   0  0  0  0  0
    3.2369   12.8045   46.7058 C   0  0  0  0  0
    4.4110   13.6566   47.0980 C   0  0  0  0  0
    6.6155   13.7768   48.2102 C   0  0  0  0  0
    7.7784   12.8175   48.4396 C   0  0  0  0  0
    9.1017   13.5639   48.5148 C   0  0  0  0  0
    9.5241   14.0297   47.1303 C   0  0  0  0  0
   10.8229   14.8117   47.2100 C   0  0  0  0  0
   10.5683   16.2020   47.7609 C   0  0  0  0  0
    6.3001   14.5952   49.4679 C   0  0  0  0  0
    5.9207   13.7254   50.6615 C   0  0  0  0  0
    4.4587   13.3189   50.5779 C   0  0  0  0  0
    4.2007   12.1064   51.4030 C   0  0  0  0  0
    3.6102    9.7092   51.4859 C   0  0  0  0  0
    2.8862    8.7218   50.5814 C   0  0  0  0  0
    1.4976    9.2307   50.2144 C   0  0  0  0  0
    0.5424    9.1561   51.3994 C   0  0  0  0  0
   -0.0886    7.7751   51.5060 C   0  0  0  0  0
    0.8248    6.8242   52.2595 C   0  0  0  0  0
    4.9314    9.1076   51.9605 C   0  0  0  0  0
    4.7723    8.2034   53.1849 C   0  0  0  0  0
    4.2582    8.9926   54.3860 C   0  0  0  0  0
    4.1259    8.1345   55.5998 C   0  0  0  0  0
    5.2029    6.5734   57.2055 C   0  0  0  0  0
    6.5613    5.8955   57.3813 C   0  0  0  0  0
    6.8343    4.8820   56.2821 C   0  0  0  0  0
    8.1331    4.1616   56.5721 C   0  0  0  0  0
    8.3874    3.1291   55.4946 C   0  0  0  0  0
    9.6761    2.3942   55.7946 C   0  0  0  0  0
    4.0476    5.5704   57.3073 C   0  0  0  0  0
    3.9916    4.9437   58.7061 C   0  0  0  0  0
    3.6620    5.9742   59.7918 C   0  0  0  0  0
    2.2918    6.5848   59.6947 C   0  0  0  0  0
    3.6998    2.7519   58.1575 C   0  0  0  0  0
    3.2265    0.7277   57.1101 C   0  0  0  0  0
    2.5484    0.8411   55.7515 C   0  0  0  0  0
    4.7607    0.5899   56.9963 C   0  0  0  0  0
    5.4238    0.9056   58.3392 C   0  0  0  0  0
    4.9232    2.2255   58.9350 C   0  0  0  0  0
    4.8110    6.0283   52.7605 C   0  0  0  0  0
    6.0433    4.8954   51.3286 C   0  0  0  0  0
    6.4951    4.7977   49.8769 C   0  0  0  0  0
    5.9511    3.5261   52.0308 C   0  0  0  0  0
    4.9346    3.5082   53.1873 C   0  0  0  0  0
    4.4388    4.8724   53.7024 C   0  0  0  0  0
   -0.7072   14.1248   43.9374 C   0  0  0  0  0
   -2.2186   14.8378   42.2592 C   0  0  0  0  0
   -1.6009   16.2238   42.0475 C   0  0  0  0  0
   -3.4572   14.8186   43.1799 C   0  0  0  0  0
   -3.1216   14.4567   44.6260 C   0  0  0  0  0
   -1.6665   14.7898   44.9417 C   0  0  0  0  0
    1.6217   14.5905   46.6847 O   0  0  0  0  0
    4.4475   14.8881   46.8241 O   0  0  0  0  0
    5.4738   13.0507   47.7700 O   0  0  0  0  0
    6.1406   14.4381   51.8397 O   0  0  0  0  0
    4.2770   12.1722   52.6604 O   0  0  0  0  0
    3.8635   10.9105   50.7676 O   0  0  0  0  0
    3.0659    8.1909   56.2795 O   0  0  0  0  0
    5.1753    7.2882   55.9729 O   0  0  0  0  0
    1.9111    7.5375   60.6296 O   0  0  0  0  0
    1.4829    6.2489   58.7887 O   0  0  0  0  0
    3.0951    3.8618   58.7766 O   0  0  0  0  0
    2.7500    1.7193   58.0128 O   0  0  0  0  0
    2.7430    2.1124   55.2087 O   0  0  0  0  0
    5.0896   -0.7055   56.5953 O   0  0  0  0  0
    6.8091    0.9618   58.1854 O   0  0  0  0  0
    4.5988    2.0291   60.2784 O   0  0  0  0  0
    3.9398    7.1144   52.9009 O   0  0  0  0  0
    4.8338    5.5935   51.4301 O   0  0  0  0  0
    6.7279    6.0721   49.3614 O   0  0  0  0  0
    5.6217    2.5087   51.1317 O   0  0  0  0  0
    5.4226    2.7368   54.2438 O   0  0  0  0  0
    3.0558    4.8111   53.8784 O   0  0  0  0  0
    0.4760   14.8684   43.8327 O   0  0  0  0  0
   -1.2592   13.8664   42.6456 O   0  0  0  0  0
   -0.6923   16.1769   40.9911 O   0  0  0  0  0
   -4.1594   16.0264   43.1293 O   0  0  0  0  0
   -3.3650   13.0965   44.8333 O   0  0  0  0  0
   -1.3481   14.4056   46.2439 O   0  0  0  0  0
  1  2  1  0  0  0
  2  3  1  0  0  0
  3  4  1  0  0  0
  4  5  1  0  0  0
  5  6  1  0  0  0
  6  7  1  0  0  0
  6 81  1  0  0  0
  7  8  1  0  0  0
  8 59  1  0  0  0
  8  9  1  0  0  0
  9 10  1  0  0  0
 10 61  1  0  0  0
 11 61  1  0  0  0
 11 12  1  0  0  0
 11 17  1  0  0  0
 12 13  1  0  0  0
 13 14  1  0  0  0
 14 15  1  0  0  0
 15 16  1  0  0  0
 17 18  1  0  0  0
 18 62  1  0  0  0
 18 19  1  0  0  0
 19 20  1  0  0  0
 20 64  1  0  0  0
 21 64  1  0  0  0
 21 22  1  0  0  0
 21 27  1  0  0  0
 22 23  1  0  0  0
 23 24  1  0  0  0
 24 25  1  0  0  0
 25 26  1  0  0  0
 27 28  1  0  0  0
 28 29  1  0  0  0
 28 75  1  0  0  0
 29 30  1  0  0  0
 30 66  1  0  0  0
 31 66  1  0  0  0
 31 32  1  0  0  0
 31 37  1  0  0  0
 32 33  1  0  0  0
 33 34  1  0  0  0
 34 35  1  0  0  0
 35 36  1  0  0  0
 37 38  1  0  0  0
 38 39  1  0  0  0
 38 69  1  0  0  0
 39 40  1  0  0  0
 40 67  1  0  0  0
 41 69  1  0  0  0
 41 70  1  0  0  0
 42 70  1  0  0  0
 42 43  1  0  0  0
 42 44  1  0  0  0
 43 71  1  0  0  0
 44 72  1  0  0  0
 44 45  1  0  0  0
 45 73  1  0  0  0
 45 46  1  0  0  0
 46 74  1  0  0  0
 46 41  1  0  0  0
 47 75  1  0  0  0
 47 76  1  0  0  0
 48 76  1  0  0  0
 48 49  1  0  0  0
 48 50  1  0  0  0
 49 77  1  0  0  0
 50 78  1  0  0  0
 50 51  1  0  0  0
 51 79  1  0  0  0
 51 52  1  0  0  0
 52 80  1  0  0  0
 52 47  1  0  0  0
 53 81  1  0  0  0
 53 82  1  0  0  0
 54 82  1  0  0  0
 54 55  1  0  0  0
 54 56  1  0  0  0
 55 83  1  0  0  0
 56 84  1  0  0  0
 56 57  1  0  0  0
 57 85  1  0  0  0
 57 58  1  0  0  0
 58 86  1  0  0  0
 58 53  1  0  0  0
 10 60  2  0  0  0
 20 63  2  0  0  0
 30 65  2  0  0  0
 40 68  2  0  0  0
M  END
> <rmsd>
0.779515207

$$$$
MolPort-047-483-983


 86 88  0  0  0  0  0  0  0  0999 V2000
    1.3171   14.7525   37.3466 C   0  0  0  0  0
    1.2647   14.8632   38.8538 C   0  0  0  0  0
    0.7442   13.5665   39.4372 C   0  0  0  0  0
    0.6189   13.7019   40.9390 C   0  0  0  0  0
    0.0504   12.4163   41.5181 C   0  0  0  0  0
   -0.1995   12.5284   43.0192 C   0  0  0  0  0
    1.1180   12.6425   43.7778 C   0  0  0  0  0
    0.8959   12.4811   45.2753 C   0  0  0  0  0
    2.0716   11.7744   45.9513 C   0  0  0  0  0
    3.3743   12.5235   45.9309 C   0  0  0  0  0
    5.7655   12.5565   46.5573 C   0  0  0  0  0
    6.8588   11.5121   46.7546 C   0  0  0  0  0
    8.2302   12.0808   46.4233 C   0  0  0  0  0
    8.3913   12.2269   44.9183 C   0  0  0  0  0
    9.7431   12.8343   44.5887 C   0  0  0  0  0
    9.7374   14.3229   44.8806 C   0  0  0  0  0
    5.7980   13.6248   47.6567 C   0  0  0  0  0
    5.6019   13.0446   49.0532 C   0  0  0  0  0
    4.1245   12.8236   49.3328 C   0  0  0  0  0
    3.9377   11.8263   50.4228 C   0  0  0  0  0
    3.1634    9.5823   51.1060 C   0  0  0  0  0
    2.1785    8.5492   50.5771 C   0  0  0  0  0
    0.7957    9.1590   50.3828 C   0  0  0  0  0
    0.1093    9.4272   51.7167 C   0  0  0  0  0
   -0.6074    8.1830   52.2218 C   0  0  0  0  0
    0.3545    7.2749   52.9678 C   0  0  0  0  0
    4.4950    8.9106   51.4354 C   0  0  0  0  0
    4.5166    8.2738   52.8268 C   0  0  0  0  0
    4.3413    9.3292   53.9154 C   0  0  0  0  0
    4.3910    8.7319   55.2822 C   0  0  0  0  0
    5.6367    7.3635   56.9407 C   0  0  0  0  0
    6.9345    6.5580   56.9918 C   0  0  0  0  0
    6.8765    5.3341   56.0926 C   0  0  0  0  0
    8.1365    4.5158   56.2733 C   0  0  0  0  0
    8.0631    3.2797   55.4024 C   0  0  0  0  0
    9.3141    2.4504   55.5977 C   0  0  0  0  0
    4.4429    6.5552   57.4629 C   0  0  0  0  0
    4.6269    6.2071   58.9453 C   0  0  0  0  0
    4.6285    7.4526   59.8387 C   0  0  0  0  0
    3.3297    8.2084   59.8793 C   0  0  0  0  0
    4.0286    4.0091   58.9235 C   0  0  0  0  0
    3.1636    1.9068   58.4227 C   0  0  0  0  0
    2.2272    1.8576   57.2230 C   0  0  0  0  0
    4.6203    1.5519   58.0516 C   0  0  0  0  0
    5.5777    2.0184   59.1509 C   0  0  0  0  0
    5.3357    3.4787   59.5468 C   0  0  0  0  0
    4.2678    6.0716   52.8583 C   0  0  0  0  0
    5.0624    4.5455   51.4828 C   0  0  0  0  0
    5.1869    4.1263   50.0234 C   0  0  0  0  0
    4.9969    3.3513   52.4556 C   0  0  0  0  0
    4.2500    3.6775   53.7621 C   0  0  0  0  0
    3.9997    5.1656   54.0705 C   0  0  0  0  0
   -2.2318   13.0693   43.7678 C   0  0  0  0  0
   -3.9924   13.6544   42.2957 C   0  0  0  0  0
   -3.3104   14.8860   41.6912 C   0  0  0  0  0
   -5.0053   13.9653   43.4180 C   0  0  0  0  0
   -4.4063   13.8329   44.8175 C   0  0  0  0  0
   -2.8933   14.0256   44.7771 C   0  0  0  0  0
    0.6568   13.7214   45.8698 O   0  0  0  0  0
    3.4635   13.6688   45.4082 O   0  0  0  0  0
    4.4956   11.9173   46.4995 O   0  0  0  0  0
    6.1290   13.9257   49.9967 O   0  0  0  0  0
    4.2833   12.1101   51.6022 O   0  0  0  0  0
    3.3672   10.5889   50.1218 O   0  0  0  0  0
    3.5079    9.0490   56.1237 O   0  0  0  0  0
    5.4144    7.8385   55.6157 O   0  0  0  0  0
    3.2428    9.3572   60.6535 O   0  0  0  0  0
    2.3208    7.8210   59.2312 O   0  0  0  0  0
    3.6712    5.2825   59.4046 O   0  0  0  0  0
    2.9801    3.1001   59.1761 O   0  0  0  0  0
    2.4172    2.9720   56.4041 O   0  0  0  0  0
    4.7385    0.1734   57.8701 O   0  0  0  0  0
    6.8986    1.8646   58.7296 O   0  0  0  0  0
    5.2858    3.5749   60.9384 O   0  0  0  0  0
    3.5479    7.2691   52.9350 O   0  0  0  0  0
    3.9699    5.4019   51.6657 O   0  0  0  0  0
    5.4201    5.2438   49.2228 O   0  0  0  0  0
    4.3944    2.2386   51.8633 O   0  0  0  0  0
    4.8780    3.0552   54.8426 O   0  0  0  0  0
    2.6852    5.3182   54.5136 O   0  0  0  0  0
   -1.0350   13.6206   43.2908 O   0  0  0  0  0
   -3.0651   12.6534   42.6847 O   0  0  0  0  0
   -2.6533   14.5291   40.5146 O   0  0  0  0  0
   -5.5901   15.2245   43.2543 O   0  0  0  0  0
   -4.7226   12.5769   45.3418 O   0  0  0  0  0
   -2.3433   13.8476   46.0462 O   0  0  0  0  0
  1  2  1  0  0  0
  2  3  1  0  0  0
  3  4  1  0  0  0
  4  5  1  0  0  0
  5  6  1  0  0  0
  6  7  1  0  0  0
  6 81  1  0  0  0
  7  8  1  0  0  0
  8 59  1  0  0  0
  8  9  1  0  0  0
  9 10  1  0  0  0
 10 61  1  0  0  0
 11 61  1  0  0  0
 11 12  1  0  0  0
 11 17  1  0  0  0
 12 13  1  0  0  0
 13 14  1  0  0  0
 14 15  1  0  0  0
 15 16  1  0  0  0
 17 18  1  0  0  0
 18 62  1  0  0  0
 18 19  1  0  0  0
 19 20  1  0  0  0
 20 64  1  0  0  0
 21 64  1  0  0  0
 21 22  1  0  0  0
 21 27  1  0  0  0
 22 23  1  0  0  0
 23 24  1  0  0  0
 24 25  1  0  0  0
 25 26  1  0  0  0
 27 28  1  0  0  0
 28 29  1  0  0  0
 28 75  1  0  0  0
 29 30  1  0  0  0
 30 66  1  0  0  0
 31 66  1  0  0  0
 31 32  1  0  0  0
 31 37  1  0  0  0
 32 33  1  0  0  0
 33 34  1  0  0  0
 34 35  1  0  0  0
 35 36  1  0  0  0
 37 38  1  0  0  0
 38 39  1  0  0  0
 38 69  1  0  0  0
 39 40  1  0  0  0
 40 67  1  0  0  0
 41 69  1  0  0  0
 41 70  1  0  0  0
 42 70  1  0  0  0
 42 43  1  0  0  0
 42 44  1  0  0  0
 43 71  1  0  0  0
 44 72  1  0  0  0
 44 45  1  0  0  0
 45 73  1  0  0  0
 45 46  1  0  0  0
 46 74  1  0  0  0
 46 41  1  0  0  0
 47 75  1  0  0  0
 47 76  1  0  0  0
 48 76  1  0  0  0
 48 49  1  0  0  0
 48 50  1  0  0  0
 49 77  1  0  0  0
 50 78  1  0  0  0
 50 51  1  0  0  0
 51 79  1  0  0  0
 51 52  1  0  0  0
 52 80  1  0  0  0
 52 47  1  0  0  0
 53 81  1  0  0  0
 53 82  1  0  0  0
 54 82  1  0  0  0
 54 55  1  0  0  0
 54 56  1  0  0  0
 55 83  1  0  0  0
 56 84  1  0  0  0
 56 57  1  0  0  0
 57 85  1  0  0  0
 57 58  1  0  0  0
 58 86  1  0  0  0
 58 53  1  0  0  0
 10 60  2  0  0  0
 20 63  2  0  0  0
 30 65  2  0  0  0
 40 68  2  0  0  0
M  END
> <rmsd>
0.826552629

$$$$
MolPort-047-483-983


 86 88  0  0  0  0  0  0  0  0999 V2000
    3.7076   16.7450   38.5669 C   0  0  0  0  0
    3.4555   16.6515   40.0550 C   0  0  0  0  0
    2.8862   15.2879   40.3856 C   0  0  0  0  0
    2.5621   15.2195   41.8620 C   0  0  0  0  0
    1.9457   13.8675   42.1835 C   0  0  0  0  0
    1.4986   13.7761   43.6395 C   0  0  0  0  0
    2.7026   13.7870   44.5747 C   0  0  0  0  0
    2.2885   13.4251   45.9943 C   0  0  0  0  0
    3.3777   12.6339   46.7198 C   0  0  0  0  0
    4.6580   13.3791   46.9728 C   0  0  0  0  0
    6.9450   13.3277   47.9097 C   0  0  0  0  0
    8.0216   12.2665   48.1090 C   0  0  0  0  0
    9.4142   12.8749   48.0417 C   0  0  0  0  0
    9.7691   13.2226   46.6045 C   0  0  0  0  0
   11.1413   13.8690   46.5414 C   0  0  0  0  0
   11.0704   15.3047   47.0262 C   0  0  0  0  0
    6.8135   14.2381   49.1366 C   0  0  0  0  0
    6.4460   13.4748   50.4044 C   0  0  0  0  0
    4.9488   13.2179   50.4535 C   0  0  0  0  0
    4.6384   12.0827   51.3659 C   0  0  0  0  0
    3.8216    9.7670   51.6343 C   0  0  0  0  0
    2.9336    8.8145   50.8460 C   0  0  0  0  0
    1.5775    9.4447   50.5532 C   0  0  0  0  0
    0.7170    9.5304   51.8079 C   0  0  0  0  0
   -0.0373    8.2294   52.0426 C   0  0  0  0  0
    0.8344    7.2292   52.7816 C   0  0  0  0  0
    5.1102    9.0571   52.0447 C   0  0  0  0  0
    4.9602    8.2386   53.3290 C   0  0  0  0  0
    4.6242    9.1375   54.5159 C   0  0  0  0  0
    4.5046    8.3613   55.7849 C   0  0  0  0  0
    5.5458    6.7820   57.3963 C   0  0  0  0  0
    6.8400    5.9772   57.5111 C   0  0  0  0  0
    6.9228    4.8857   56.4567 C   0  0  0  0  0
    8.1627    4.0507   56.6920 C   0  0  0  0  0
    8.2268    2.9433   55.6619 C   0  0  0  0  0
    9.4560    2.0955   55.9088 C   0  0  0  0  0
    4.3086    5.9105   57.6426 C   0  0  0  0  0
    4.3022    5.3657   59.0764 C   0  0  0  0  0
    4.1639    6.4794   60.1205 C   0  0  0  0  0
    2.8577    7.2226   60.0890 C   0  0  0  0  0
    3.7518    3.1906   58.6819 C   0  0  0  0  0
    2.9983    1.1750   57.7943 C   0  0  0  0  0
    2.2288    1.2878   56.4852 C   0  0  0  0  0
    4.4973    0.8735   57.5758 C   0  0  0  0  0
    5.2932    1.1877   58.8448 C   0  0  0  0  0
    4.9750    2.5812   59.3967 C   0  0  0  0  0
    4.7492    6.0522   53.0326 C   0  0  0  0  0
    5.7451    4.7256   51.5833 C   0  0  0  0  0
    6.0681    4.5071   50.1105 C   0  0  0  0  0
    5.5739    3.4112   52.3704 C   0  0  0  0  0
    4.6560    3.5581   53.5979 C   0  0  0  0  0
    4.3404    4.9910   54.0664 C   0  0  0  0  0
   -0.6239   14.2108   44.1772 C   0  0  0  0  0
   -2.1859   14.9888   42.5761 C   0  0  0  0  0
   -1.4527   16.2907   42.2374 C   0  0  0  0  0
   -3.3431   15.1453   43.5854 C   0  0  0  0  0
   -2.9310   14.8255   45.0217 C   0  0  0  0  0
   -1.4295   15.0222   45.2086 C   0  0  0  0  0
    1.9510   14.5739   46.7122 O   0  0  0  0  0
    4.7945   14.5845   46.6243 O   0  0  0  0  0
    5.7056   12.7020   47.5990 O   0  0  0  0  0
    6.8285   14.2207   51.5188 O   0  0  0  0  0
    4.8207   12.2050   52.6080 O   0  0  0  0  0
    4.1348   10.8971   50.8293 O   0  0  0  0  0
    3.5129    8.5620   56.5366 O   0  0  0  0  0
    5.4912    7.4314   56.1289 O   0  0  0  0  0
    2.6490    8.2565   60.9913 O   0  0  0  0  0
    1.9499    6.9259   59.2668 O   0  0  0  0  0
    3.3114    4.3875   59.2771 O   0  0  0  0  0
    2.6958    2.2557   58.6694 O   0  0  0  0  0
    2.5046    2.5025   55.8551 O   0  0  0  0  0
    4.6632   -0.4679   57.2290 O   0  0  0  0  0
    6.6607    1.0923   58.5858 O   0  0  0  0  0
    4.7408    2.4889   60.7696 O   0  0  0  0  0
    4.0039    7.2283   53.1724 O   0  0  0  0  0
    4.6228    5.5494   51.7324 O   0  0  0  0  0
    6.3842    5.7224   49.5044 O   0  0  0  0  0
    5.0747    2.3884   51.5600 O   0  0  0  0  0
    5.1475    2.7958   54.6593 O   0  0  0  0  0
    2.9765    5.0823   54.3476 O   0  0  0  0  0
    0.6151   14.8216   43.9414 O   0  0  0  0  0
   -1.2999   13.9446   42.9474 O   0  0  0  0  0
   -0.6402   16.0958   41.1214 O   0  0  0  0  0
   -3.9239   16.4150   43.5153 O   0  0  0  0  0
   -3.2907   13.5103   45.3268 O   0  0  0  0  0
   -1.0481   14.6747   46.5041 O   0  0  0  0  0
  1  2  1  0  0  0
  2  3  1  0  0  0
  3  4  1  0  0  0
  4  5  1  0  0  0
  5  6  1  0  0  0
  6  7  1  0  0  0
  6 81  1  0  0  0
  7  8  1  0  0  0
  8 59  1  0  0  0
  8  9  1  0  0  0
  9 10  1  0  0  0
 10 61  1  0  0  0
 11 61  1  0  0  0
 11 12  1  0  0  0
 11 17  1  0  0  0
 12 13  1  0  0  0
 13 14  1  0  0  0
 14 15  1  0  0  0
 15 16  1  0  0  0
 17 18  1  0  0  0
 18 62  1  0  0  0
 18 19  1  0  0  0
 19 20  1  0  0  0
 20 64  1  0  0  0
 21 64  1  0  0  0
 21 22  1  0  0  0
 21 27  1  0  0  0
 22 23  1  0  0  0
 23 24  1  0  0  0
 24 25  1  0  0  0
 25 26  1  0  0  0
 27 28  1  0  0  0
 28 29  1  0  0  0
 28 75  1  0  0  0
 29 30  1  0  0  0
 30 66  1  0  0  0
 31 66  1  0  0  0
 31 32  1  0  0  0
 31 37  1  0  0  0
 32 33  1  0  0  0
 33 34  1  0  0  0
 34 35  1  0  0  0
 35 36  1  0  0  0
 37 38  1  0  0  0
 38 39  1  0  0  0
 38 69  1  0  0  0
 39 40  1  0  0  0
 40 67  1  0  0  0
 41 69  1  0  0  0
 41 70  1  0  0  0
 42 70  1  0  0  0
 42 43  1  0  0  0
 42 44  1  0  0  0
 43 71  1  0  0  0
 44 72  1  0  0  0
 44 45  1  0  0  0
 45 73  1  0  0  0
 45 46  1  0  0  0
 46 74  1  0  0  0
 46 41  1  0  0  0
 47 75  1  0  0  0
 47 76  1  0  0  0
 48 76  1  0  0  0
 48 49  1  0  0  0
 48 50  1  0  0  0
 49 77  1  0  0  0
 50 78  1  0  0  0
 50 51  1  0  0  0
 51 79  1  0  0  0
 51 52  1  0  0  0
 52 80  1  0  0  0
 52 47  1  0  0  0
 53 81  1  0  0  0
 53 82  1  0  0  0
 54 82  1  0  0  0
 54 55  1  0  0  0
 54 56  1  0  0  0
 55 83  1  0  0  0
 56 84  1  0  0  0
 56 57  1  0  0  0
 57 85  1  0  0  0
 57 58  1  0  0  0
 58 86  1  0  0  0
 58 53  1  0  0  0
 10 60  2  0  0  0
 20 63  2  0  0  0
 30 65  2  0  0  0
 40 68  2  0  0  0
M  END
> <rmsd>
0.711775362

$$$$
MolPort-047-483-983


 86 88  0  0  0  0  0  0  0  0999 V2000
   -4.5879   12.1569   39.8619 C   0  0  0  0  0
   -4.7170   10.9626   40.7876 C   0  0  0  0  0
   -4.1286   11.2792   42.1532 C   0  0  0  0  0
   -2.6085   11.2618   42.0969 C   0  0  0  0  0
   -2.0213   11.5337   43.4731 C   0  0  0  0  0
   -2.1897   12.9982   43.8668 C   0  0  0  0  0
   -1.9195   13.1641   45.3555 C   0  0  0  0  0
   -3.1379   12.8275   46.2136 C   0  0  0  0  0
   -2.8801   13.1882   47.6760 C   0  0  0  0  0
   -1.7133   12.4423   48.2424 C   0  0  0  0  0
   -0.6524   10.2528   48.6084 C   0  0  0  0  0
   -0.1413    9.7995   47.2375 C   0  0  0  0  0
   -1.2165    9.1173   46.3991 C   0  0  0  0  0
   -1.2964    7.6371   46.7391 C   0  0  0  0  0
   -2.4333    6.9819   45.9779 C   0  0  0  0  0
   -2.0371    6.7426   44.5348 C   0  0  0  0  0
   -0.9407    9.0613   49.5126 C   0  0  0  0  0
   -0.8199    9.4369   50.9906 C   0  0  0  0  0
   -1.0334    8.2158   51.8896 C   0  0  0  0  0
   -0.1220    7.0801   51.5352 C   0  0  0  0  0
    2.1554    6.3492   50.9256 C   0  0  0  0  0
    3.4614    7.0094   50.4891 C   0  0  0  0  0
    3.9921    8.0191   51.4965 C   0  0  0  0  0
    5.4535    8.3286   51.2157 C   0  0  0  0  0
    6.3660    7.3160   51.8973 C   0  0  0  0  0
    6.4545    6.0329   51.0885 C   0  0  0  0  0
    2.3775    5.0660   51.7319 C   0  0  0  0  0
    2.3843    5.2317   53.2635 C   0  0  0  0  0
    3.5373    6.0864   53.7907 C   0  0  0  0  0
    3.3452    6.3953   55.2399 C   0  0  0  0  0
    4.0704    5.9641   57.5571 C   0  0  0  0  0
    5.3984    5.9780   58.3199 C   0  0  0  0  0
    6.2548    4.7462   58.0529 C   0  0  0  0  0
    7.1192    4.9665   56.8284 C   0  0  0  0  0
    7.9443    3.7247   56.5703 C   0  0  0  0  0
    8.7925    3.9285   55.3337 C   0  0  0  0  0
    3.2066    4.7543   57.9214 C   0  0  0  0  0
    2.9039    4.6905   59.4181 C   0  0  0  0  0
    1.6858    5.5409   59.7497 C   0  0  0  0  0
    2.0706    6.9672   59.9468 C   0  0  0  0  0
    3.9128    2.8279   60.1061 C   0  0  0  0  0
    5.5544    2.7254   61.6156 C   0  0  0  0  0
    6.0141    3.1551   62.9981 C   0  0  0  0  0
    5.8858    1.2388   61.3616 C   0  0  0  0  0
    4.7305    0.4868   60.6857 C   0  0  0  0  0
    3.9670    1.3574   59.6759 C   0  0  0  0  0
    3.2643    3.1098   53.5171 C   0  0  0  0  0
    3.6080    1.2104   52.2785 C   0  0  0  0  0
    3.7862    1.7617   50.8642 C   0  0  0  0  0
    4.9315    0.9439   53.0437 C   0  0  0  0  0
    4.8120    1.3608   54.5147 C   0  0  0  0  0
    4.2359    2.7736   54.6581 C   0  0  0  0  0
   -2.0373   14.6119   42.3386 C   0  0  0  0  0
   -1.1351   16.6548   42.8979 C   0  0  0  0  0
   -1.2152   17.8013   43.8958 C   0  0  0  0  0
   -0.9476   17.1842   41.4677 C   0  0  0  0  0
   -1.4647   16.1884   40.4254 C   0  0  0  0  0
   -1.3689   14.7545   40.9558 C   0  0  0  0  0
   -3.4701   11.4744   46.1007 O   0  0  0  0  0
   -0.6416   13.0606   48.4827 O   0  0  0  0  0
   -1.8082   11.0680   48.4636 O   0  0  0  0  0
    0.4330   10.0032   51.2504 O   0  0  0  0  0
   -0.6181    5.9735   51.1879 O   0  0  0  0  0
    1.2617    7.2686   51.5482 O   0  0  0  0  0
    2.3112    7.0052   55.6258 O   0  0  0  0  0
    4.3106    5.9824   56.1557 O   0  0  0  0  0
    2.9383    7.3167   60.9708 O   0  0  0  0  0
    1.6053    7.8596   59.1891 O   0  0  0  0  0
    2.6584    3.3662   59.7945 O   0  0  0  0  0
    4.1762    2.9669   61.4811 O   0  0  0  0  0
    7.4086    3.1783   63.0474 O   0  0  0  0  0
    7.0368    1.1441   60.5758 O   0  0  0  0  0
    3.8470    0.0231   61.6609 O   0  0  0  0  0
    4.5711    1.2677   58.4201 O   0  0  0  0  0
    2.2725    4.0037   53.9615 O   0  0  0  0  0
    2.6513    1.9446   53.0207 O   0  0  0  0  0
    2.5699    1.7240   50.1819 O   0  0  0  0  0
    6.0114    1.6097   52.4560 O   0  0  0  0  0
    4.0069    0.4544   55.2052 O   0  0  0  0  0
    5.2830    3.6909   54.6394 O   0  0  0  0  0
   -1.2696   13.7736   43.1553 O   0  0  0  0  0
   -2.2892   15.8499   42.9872 O   0  0  0  0  0
   -2.3420   18.5902   43.6496 O   0  0  0  0  0
    0.4040   17.4461   41.2427 O   0  0  0  0  0
   -2.7862   16.4992   40.0959 O   0  0  0  0  0
   -1.9291   13.8538   40.0499 O   0  0  0  0  0
  1  2  1  0  0  0
  2  3  1  0  0  0
  3  4  1  0  0  0
  4  5  1  0  0  0
  5  6  1  0  0  0
  6  7  1  0  0  0
  6 81  1  0  0  0
  7  8  1  0  0  0
  8 59  1  0  0  0
  8  9  1  0  0  0
  9 10  1  0  0  0
 10 61  1  0  0  0
 11 61  1  0  0  0
 11 12  1  0  0  0
 11 17  1  0  0  0
 12 13  1  0  0  0
 13 14  1  0  0  0
 14 15  1  0  0  0
 15 16  1  0  0  0
 17 18  1  0  0  0
 18 62  1  0  0  0
 18 19  1  0  0  0
 19 20  1  0  0  0
 20 64  1  0  0  0
 21 64  1  0  0  0
 21 22  1  0  0  0
 21 27  1  0  0  0
 22 23  1  0  0  0
 23 24  1  0  0  0
 24 25  1  0  0  0
 25 26  1  0  0  0
 27 28  1  0  0  0
 28 29  1  0  0  0
 28 75  1  0  0  0
 29 30  1  0  0  0
 30 66  1  0  0  0
 31 66  1  0  0  0
 31 32  1  0  0  0
 31 37  1  0  0  0
 32 33  1  0  0  0
 33 34  1  0  0  0
 34 35  1  0  0  0
 35 36  1  0  0  0
 37 38  1  0  0  0
 38 39  1  0  0  0
 38 69  1  0  0  0
 39 40  1  0  0  0
 40 67  1  0  0  0
 41 69  1  0  0  0
 41 70  1  0  0  0
 42 70  1  0  0  0
 42 43  1  0  0  0
 42 44  1  0  0  0
 43 71  1  0  0  0
 44 72  1  0  0  0
 44 45  1  0  0  0
 45 73  1  0  0  0
 45 46  1  0  0  0
 46 74  1  0  0  0
 46 41  1  0  0  0
 47 75  1  0  0  0
 47 76  1  0  0  0
 48 76  1  0  0  0
 48 49  1  0  0  0
 48 50  1  0  0  0
 49 77  1  0  0  0
 50 78  1  0  0  0
 50 51  1  0  0  0
 51 79  1  0  0  0
 51 52  1  0  0  0
 52 80  1  0  0  0
 52 47  1  0  0  0
 53 81  1  0  0  0
 53 82  1  0  0  0
 54 82  1  0  0  0
 54 55  1  0  0  0
 54 56  1  0  0  0
 55 83  1  0  0  0
 56 84  1  0  0  0
 56 57  1  0  0  0
 57 85  1  0  0  0
 57 58  1  0  0  0
 58 86  1  0  0  0
 58 53  1  0  0  0
 10 60  2  0  0  0
 20 63  2  0  0  0
 30 65  2  0  0  0
 40 68  2  0  0  0
M  END
> <rmsd>
0.68609035

$$$$
MolPort-047-483-983


 86 88  0  0  0  0  0  0  0  0999 V2000
   -4.2161   11.9552   39.0623 C   0  0  0  0  0
   -4.3406   10.7495   39.9740 C   0  0  0  0  0
   -3.8517   11.0856   41.3737 C   0  0  0  0  0
   -2.3320   11.1442   41.4090 C   0  0  0  0  0
   -1.8427   11.4355   42.8191 C   0  0  0  0  0
   -2.1075   12.8871   43.2077 C   0  0  0  0  0
   -1.9357   13.0560   44.7105 C   0  0  0  0  0
   -3.1850   12.6533   45.4924 C   0  0  0  0  0
   -3.0338   13.0163   46.9691 C   0  0  0  0  0
   -1.8671   12.3254   47.6018 C   0  0  0  0  0
   -0.7218   10.1890   48.0225 C   0  0  0  0  0
   -0.1073    9.7711   46.6832 C   0  0  0  0  0
   -1.0948    9.0421   45.7788 C   0  0  0  0  0
   -1.1207    7.5574   46.1077 C   0  0  0  0  0
   -2.1757    6.8517   45.2768 C   0  0  0  0  0
   -1.6822    6.6424   43.8593 C   0  0  0  0  0
   -1.0037    8.9784   48.9031 C   0  0  0  0  0
   -0.9907    9.3494   50.3871 C   0  0  0  0  0
   -1.1963    8.1130   51.2668 C   0  0  0  0  0
   -0.2096    7.0265   50.9636 C   0  0  0  0  0
    2.1341    6.4141   50.4895 C   0  0  0  0  0
    3.4291    7.1413   50.1349 C   0  0  0  0  0
    3.8473    8.1693   51.1764 C   0  0  0  0  0
    5.3056    8.5530   50.9853 C   0  0  0  0  0
    6.2251    7.5823   51.7167 C   0  0  0  0  0
    6.4261    6.3108   50.9097 C   0  0  0  0  0
    2.3713    5.1379   51.3026 C   0  0  0  0  0
    2.2780    5.2932   52.8325 C   0  0  0  0  0
    3.3531    6.2005   53.4315 C   0  0  0  0  0
    3.0592    6.4895   54.8677 C   0  0  0  0  0
    3.6649    6.0790   57.2226 C   0  0  0  0  0
    4.9423    6.1537   58.0641 C   0  0  0  0  0
    5.8738    4.9679   57.8444 C   0  0  0  0  0
    6.7980    5.2394   56.6750 C   0  0  0  0  0
    7.6982    4.0419   56.4622 C   0  0  0  0  0
    8.6078    4.2962   55.2798 C   0  0  0  0  0
    2.8424    4.8253   57.5296 C   0  0  0  0  0
    2.4541    4.7362   59.0051 C   0  0  0  0  0
    1.1772    5.5226   59.2660 C   0  0  0  0  0
    1.4777    6.9649   59.4915 C   0  0  0  0  0
    3.5119    2.9213   59.7454 C   0  0  0  0  0
    5.0632    2.8902   61.3505 C   0  0  0  0  0
    5.4171    3.3327   62.7599 C   0  0  0  0  0
    5.4833    1.4238   61.1112 C   0  0  0  0  0
    4.4096    0.6199   60.3640 C   0  0  0  0  0
    3.6655    1.4583   59.3135 C   0  0  0  0  0
    3.2463    3.2160   53.1304 C   0  0  0  0  0
    3.7584    1.3447   51.9074 C   0  0  0  0  0
    3.9933    1.9139   50.5085 C   0  0  0  0  0
    5.0453    1.1391   52.7499 C   0  0  0  0  0
    4.8171    1.5394   54.2126 C   0  0  0  0  0
    4.1635    2.9207   54.3265 C   0  0  0  0  0
   -1.9448   14.5169   41.6977 C   0  0  0  0  0
   -1.1811   16.5982   42.3182 C   0  0  0  0  0
   -1.3783   17.7324   43.3140 C   0  0  0  0  0
   -0.9350   17.1462   40.9039 C   0  0  0  0  0
   -1.3381   16.1330   39.8285 C   0  0  0  0  0
   -1.2026   14.7021   40.3582 C   0  0  0  0  0
   -3.4417   11.2862   45.3545 O   0  0  0  0  0
   -0.8441   12.9946   47.9086 O   0  0  0  0  0
   -1.9061   10.9467   47.8115 O   0  0  0  0  0
    0.2145    9.9755   50.7241 O   0  0  0  0  0
   -0.6279    5.8990   50.5828 O   0  0  0  0  0
    1.1596    7.2835   51.0607 O   0  0  0  0  0
    1.9747    7.0446   55.1930 O   0  0  0  0  0
    3.9874    6.1189   55.8383 O   0  0  0  0  0
    2.2638    7.3501   60.5673 O   0  0  0  0  0
    1.0145    7.8382   58.7106 O   0  0  0  0  0
    2.2531    3.3988   59.3609 O   0  0  0  0  0
    3.6851    3.0638   61.1342 O   0  0  0  0  0
    6.8032    3.4250   62.8932 O   0  0  0  0  0
    6.6826    1.3919   60.3958 O   0  0  0  0  0
    3.4936    0.1061   61.2824 O   0  0  0  0  0
    4.3475    1.4075   58.0960 O   0  0  0  0  0
    2.1862    4.0564   53.5177 O   0  0  0  0  0
    2.7233    2.0252   52.5935 O   0  0  0  0  0
    2.8234    1.8205   49.7541 O   0  0  0  0  0
    6.1238    1.8618   52.2308 O   0  0  0  0  0
    4.0184    0.5893   54.8498 O   0  0  0  0  0
    5.1626    3.8891   54.3744 O   0  0  0  0  0
   -1.1864   13.7122   42.5558 O   0  0  0  0  0
   -2.2967   15.7363   42.3348 O   0  0  0  0  0
   -2.5263   18.4659   43.0034 O   0  0  0  0  0
    0.4129   17.4765   40.7618 O   0  0  0  0  0
   -2.6515   16.3800   39.4213 O   0  0  0  0  0
   -1.6617   13.7809   39.4167 O   0  0  0  0  0
  1  2  1  0  0  0
  2  3  1  0  0  0
  3  4  1  0  0  0
  4  5  1  0  0  0
  5  6  1  0  0  0
  6  7  1  0  0  0
  6 81  1  0  0  0
  7  8  1  0  0  0
  8 59  1  0  0  0
  8  9  1  0  0  0
  9 10  1  0  0  0
 10 61  1  0  0  0
 11 61  1  0  0  0
 11 12  1  0  0  0
 11 17  1  0  0  0
 12 13  1  0  0  0
 13 14  1  0  0  0
 14 15  1  0  0  0
 15 16  1  0  0  0
 17 18  1  0  0  0
 18 62  1  0  0  0
 18 19  1  0  0  0
 19 20  1  0  0  0
 20 64  1  0  0  0
 21 64  1  0  0  0
 21 22  1  0  0  0
 21 27  1  0  0  0
 22 23  1  0  0  0
 23 24  1  0  0  0
 24 25  1  0  0  0
 25 26  1  0  0  0
 27 28  1  0  0  0
 28 29  1  0  0  0
 28 75  1  0  0  0
 29 30  1  0  0  0
 30 66  1  0  0  0
 31 66  1  0  0  0
 31 32  1  0  0  0
 31 37  1  0  0  0
 32 33  1  0  0  0
 33 34  1  0  0  0
 34 35  1  0  0  0
 35 36  1  0  0  0
 37 38  1  0  0  0
 38 39  1  0  0  0
 38 69  1  0  0  0
 39 40  1  0  0  0
 40 67  1  0  0  0
 41 69  1  0  0  0
 41 70  1  0  0  0
 42 70  1  0  0  0
 42 43  1  0  0  0
 42 44  1  0  0  0
 43 71  1  0  0  0
 44 72  1  0  0  0
 44 45  1  0  0  0
 45 73  1  0  0  0
 45 46  1  0  0  0
 46 74  1  0  0  0
 46 41  1  0  0  0
 47 75  1  0  0  0
 47 76  1  0  0  0
 48 76  1  0  0  0
 48 49  1  0  0  0
 48 50  1  0  0  0
 49 77  1  0  0  0
 50 78  1  0  0  0
 50 51  1  0  0  0
 51 79  1  0  0  0
 51 52  1  0  0  0
 52 80  1  0  0  0
 52 47  1  0  0  0
 53 81  1  0  0  0
 53 82  1  0  0  0
 54 82  1  0  0  0
 54 55  1  0  0  0
 54 56  1  0  0  0
 55 83  1  0  0  0
 56 84  1  0  0  0
 56 57  1  0  0  0
 57 85  1  0  0  0
 57 58  1  0  0  0
 58 86  1  0  0  0
 58 53  1  0  0  0
 10 60  2  0  0  0
 20 63  2  0  0  0
 30 65  2  0  0  0
 40 68  2  0  0  0
M  END
> <rmsd>
0.642688453

$$$$
MolPort-006-536-873 ChemDiv-V007-4624 MCULE-7008289706 PubChem-46002668 ZINC000103094803


 42 46  0  0  0  0  0  0  0  0999 V2000
   -2.4154   14.5860   43.2614 C   0  0  0  0  0
   -0.7215   12.8709   43.8166 C   0  0  0  0  0
   -1.3040   12.5990   45.0599 C   0  0  0  0  0
   -0.7494   11.6322   45.8982 C   0  0  0  0  0
    0.3969   10.9118   45.5201 C   0  0  0  0  0
    0.9899   11.1894   44.2627 C   0  0  0  0  0
    2.7756   10.7345   42.6022 C   0  0  0  0  0
    0.4188   12.1670   43.4290 C   0  0  0  0  0
    0.9403    9.8862   46.4543 C   0  0  0  0  0
    0.3891    9.7217   47.7304 C   0  0  0  0  0
    0.9079    8.7559   48.5869 C   0  0  0  0  0
    1.9740    7.9594   48.1591 C   0  0  0  0  0
    1.9823    6.7218   50.3530 C   0  0  0  0  0
    3.1106    6.5640   51.3704 C   0  0  0  0  0
    4.0412    5.0564   49.5496 C   0  0  0  0  0
    3.6391    6.1171   48.5257 C   0  0  0  0  0
    5.2706    5.3174   51.7167 C   0  0  0  0  0
    5.3727    5.8378   53.1158 C   0  0  0  0  0
    3.3792    4.9293   54.3244 C   0  0  0  0  0
    3.1243    5.4485   55.6990 C   0  0  0  0  0
    3.2897    6.8249   55.9755 C   0  0  0  0  0
    3.0718    7.3243   57.2726 C   0  0  0  0  0
    2.6932    6.4138   58.2561 C   0  0  0  0  0
    2.0680    5.4041   60.2001 C   0  0  0  0  0
    2.5359    5.0912   57.9927 C   0  0  0  0  0
    2.7423    4.5602   56.7218 C   0  0  0  0  0
    5.6267    3.8297   54.6180 C   0  0  0  0  0
    7.1150    3.8456   54.4647 C   0  0  0  0  0
    7.7500    4.8116   55.4527 C   0  0  0  0  0
    9.1748    5.0970   55.0264 C   0  0  0  0  0
    7.7594    4.2126   56.8465 C   0  0  0  0  0
   -1.2524   13.8309   42.9503 O   0  0  0  0  0
    2.1384   10.5015   43.8517 O   0  0  0  0  0
    6.1727    4.5476   51.2893 O   0  0  0  0  0
    2.4192    6.6531   59.5876 O   0  0  0  0  0
    2.1563    4.4348   59.1461 O   0  0  0  0  0
    5.0950    2.8918   55.2711 O   0  0  0  0  0
    2.4763    8.1558   46.9094 N   0  0  0  0  0
    1.9775    9.0830   46.0894 N   0  0  0  0  0
    2.5376    6.9527   49.0173 N   0  0  0  0  0
    4.1552    5.6584   50.8784 N   0  0  0  0  0
    4.8125    4.8748   54.0572 N   0  0  0  0  0
  1 32  1  0  0  0
  2 32  1  0  0  0
  3  4  1  0  0  0
  5  6  1  0  0  0
  5  9  1  0  0  0
  6 33  1  0  0  0
  7 33  1  0  0  0
  8  2  1  0  0  0
  9 39  1  0  0  0
 10 11  1  0  0  0
 12 38  1  0  0  0
 12 40  1  0  0  0
 13 40  1  0  0  0
 13 14  1  0  0  0
 14 41  1  0  0  0
 15 41  1  0  0  0
 15 16  1  0  0  0
 16 40  1  0  0  0
 18 17  1  0  0  0
 18 42  1  0  0  0
 19 42  1  0  0  0
 19 20  1  0  0  0
 21 22  1  0  0  0
 23 35  1  0  0  0
 24 35  1  0  0  0
 24 36  1  0  0  0
 25 36  1  0  0  0
 25 23  1  0  0  0
 26 20  1  0  0  0
 28 27  1  0  0  0
 28 29  1  0  0  0
 29 30  1  0  0  0
 29 31  1  0  0  0
 41 17  1  0  0  0
 42 27  1  0  0  0
  2  3  2  0  0  0
  4  5  2  0  0  0
  6  8  2  0  0  0
  9 10  2  0  0  0
 11 12  2  0  0  0
 17 34  2  0  0  0
 20 21  2  0  0  0
 22 23  2  0  0  0
 25 26  2  0  0  0
 27 37  2  0  0  0
 38 39  2  0  0  0
M  END
> <rmsd>
0.571316957

$$$$
MolPort-047-605-324


 79 83  0  0  0  0  0  0  0  0999 V2000
    7.9918    4.2557   55.2578 C   0  0  0  0  0
    7.6269    5.2294   56.3581 C   0  0  0  0  0
    6.9935    6.4641   55.7551 C   0  0  0  0  0
    6.6030    7.4152   56.8670 C   0  0  0  0  0
    5.9310    8.6344   56.2826 C   0  0  0  0  0
    5.3880    9.4981   57.4083 C   0  0  0  0  0
    4.4774   10.5817   56.8455 C   0  0  0  0  0
    3.1884   10.0264   56.3267 C   0  0  0  0  0
    1.8073    8.0241   55.8986 C   0  0  0  0  0
    0.4361    8.4322   56.4218 C   0  0  0  0  0
   -0.7987    8.5020   54.2959 C   0  0  0  0  0
   -1.4872    7.6968   53.2425 C   0  0  0  0  0
   -0.5266    6.6589   52.6599 C   0  0  0  0  0
    0.5955    7.3245   51.8727 C   0  0  0  0  0
    0.0991    7.7141   50.4918 C   0  0  0  0  0
    0.9425    8.8487   49.9288 C   0  0  0  0  0
    0.5741   10.1886   50.5659 C   0  0  0  0  0
   -0.8600   10.5913   50.2344 C   0  0  0  0  0
   -1.7854   10.0392   47.9554 C   0  0  0  0  0
   -1.9186   10.3670   46.5252 C   0  0  0  0  0
   -1.4429   11.5852   46.0276 C   0  0  0  0  0
   -1.5543   11.9106   44.6667 C   0  0  0  0  0
   -1.0199   13.2243   44.2321 C   0  0  0  0  0
   -2.1645   10.9774   43.7898 C   0  0  0  0  0
   -2.6405    9.7583   44.2954 C   0  0  0  0  0
   -2.5200    9.4571   45.6502 C   0  0  0  0  0
   -2.3579   11.2365   42.3456 C   0  0  0  0  0
   -1.4256   10.7749   41.4070 C   0  0  0  0  0
   -0.2698   10.0748   41.7611 C   0  0  0  0  0
    0.6261    9.6589   40.7724 C   0  0  0  0  0
    0.3910    9.9298   39.4192 C   0  0  0  0  0
   -0.7509   10.6290   39.0194 C   0  0  0  0  0
   -1.6703   11.0633   39.9735 C   0  0  0  0  0
   -3.6521   12.1609   40.4857 C   0  0  0  0  0
   -4.7773   12.8455   40.0211 C   0  0  0  0  0
   -5.7371   13.3198   40.9179 C   0  0  0  0  0
   -5.5774   13.1140   42.2890 C   0  0  0  0  0
   -4.4597   12.4273   42.7673 C   0  0  0  0  0
   -3.4860   11.9425   41.8789 C   0  0  0  0  0
    1.9958    6.5260   56.0627 C   0  0  0  0  0
    3.2727    5.2203   58.5709 C   0  0  0  0  0
    3.7881    6.5728   59.0827 C   0  0  0  0  0
    4.8468    6.4250   60.1855 C   0  0  0  0  0
    4.3810    5.4909   61.3107 C   0  0  0  0  0
    3.9639    4.1263   60.7531 C   0  0  0  0  0
    2.8476    4.2892   59.7174 C   0  0  0  0  0
    2.4423   10.7593   55.6233 O   0  0  0  0  0
    2.8349    8.7047   56.6049 O   0  0  0  0  0
   -0.5735    7.9444   55.5519 O   0  0  0  0  0
   -0.3721    9.6572   54.0223 O   0  0  0  0  0
   -2.3505    9.0111   48.4187 O   0  0  0  0  0
   -0.5075   14.1077   45.1791 O   0  0  0  0  0
   -1.0095   13.5618   43.0182 O   0  0  0  0  0
    1.2213    9.5430   38.5563 O   0  0  0  0  0
   -2.7557   11.7240   39.6072 O   0  0  0  0  0
   -6.8546   13.9898   40.4425 O   0  0  0  0  0
    3.2678    6.1509   55.6129 O   0  0  0  0  0
    4.6483    3.8235   55.1528 O   0  0  0  0  0
    2.2733    3.7595   56.2040 O   0  0  0  0  0
    4.2299    4.6157   57.7469 O   0  0  0  0  0
    2.7197    7.3477   59.5364 O   0  0  0  0  0
    6.0500    5.9644   59.6347 O   0  0  0  0  0
    8.7448    6.5500   59.5679 O   0  0  0  0  0
    7.4372    6.4522   61.9864 O   0  0  0  0  0
    6.9880    8.3556   60.2453 O   0  0  0  0  0
    3.3268    6.0780   62.0256 O   0  0  0  0  0
    4.7420    5.2046   64.2555 O   0  0  0  0  0
    2.7239    7.0653   64.5339 O   0  0  0  0  0
    4.9761    7.6517   63.3387 O   0  0  0  0  0
    3.5307    3.3021   61.7970 O   0  0  0  0  0
    4.3636    1.1683   63.3311 O   0  0  0  0  0
    6.2390    2.8617   62.2463 O   0  0  0  0  0
    4.8014    1.2476   60.7560 O   0  0  0  0  0
    2.4798    3.0415   59.2120 O   0  0  0  0  0
   -0.9880   10.8674   48.8124 N   0  0  0  0  0
    3.5484    4.5749   56.1907 P   0  0  0  0  0
    7.2862    6.8777   60.3554 P   0  0  0  0  0
    3.9770    6.5307   63.5276 P   0  0  0  0  0
    4.7371    2.1231   61.9889 P   0  0  0  0  0
  1  2  1  0  0  0
  2  3  1  0  0  0
  3  4  1  0  0  0
  4  5  1  0  0  0
  5  6  1  0  0  0
  6  7  1  0  0  0
  7  8  1  0  0  0
  8 48  1  0  0  0
  9 48  1  0  0  0
  9 10  1  0  0  0
  9 40  1  0  0  0
 10 49  1  0  0  0
 11 49  1  0  0  0
 12 11  1  0  0  0
 12 13  1  0  0  0
 13 14  1  0  0  0
 14 15  1  0  0  0
 15 16  1  0  0  0
 16 17  1  0  0  0
 17 18  1  0  0  0
 18 75  1  0  0  0
 19 20  1  0  0  0
 21 22  1  0  0  0
 22 23  1  0  0  0
 23 52  1  0  0  0
 24 25  1  0  0  0
 24 27  1  0  0  0
 26 20  1  0  0  0
 28 29  1  0  0  0
 30 31  1  0  0  0
 31 32  1  0  0  0
 33 55  1  0  0  0
 33 28  1  0  0  0
 34 55  1  0  0  0
 35 36  1  0  0  0
 36 56  1  0  0  0
 37 38  1  0  0  0
 39 27  1  0  0  0
 39 34  1  0  0  0
 40 57  1  0  0  0
 41 60  1  0  0  0
 41 42  1  0  0  0
 42 61  1  0  0  0
 42 43  1  0  0  0
 43 62  1  0  0  0
 43 44  1  0  0  0
 44 66  1  0  0  0
 44 45  1  0  0  0
 45 70  1  0  0  0
 45 46  1  0  0  0
 46 74  1  0  0  0
 46 41  1  0  0  0
 75 19  1  0  0  0
 76 57  1  0  0  0
 76 58  1  0  0  0
 76 60  1  0  0  0
 77 62  1  0  0  0
 77 63  1  0  0  0
 77 64  1  0  0  0
 78 66  1  0  0  0
 78 67  1  0  0  0
 78 68  1  0  0  0
 79 70  1  0  0  0
 79 71  1  0  0  0
 79 72  1  0  0  0
  8 47  2  0  0  0
 11 50  2  0  0  0
 19 51  2  0  0  0
 20 21  2  0  0  0
 22 24  2  0  0  0
 23 53  2  0  0  0
 25 26  2  0  0  0
 27 28  2  0  0  0
 29 30  2  0  0  0
 31 54  2  0  0  0
 32 33  2  0  0  0
 34 35  2  0  0  0
 36 37  2  0  0  0
 38 39  2  0  0  0
 76 59  2  0  0  0
 77 65  2  0  0  0
 78 69  2  0  0  0
 79 73  2  0  0  0
M  CHG  7  58  -1  63  -1  64  -1  67  -1  68  -1  71  -1  72  -1
M  END
> <rmsd>
0.773927987

$$$$
MolPort-047-605-324


 79 83  0  0  0  0  0  0  0  0999 V2000
    9.1955    7.7411   53.8350 C   0  0  0  0  0
    9.0826    7.1770   55.2346 C   0  0  0  0  0
    9.9213    5.9191   55.3362 C   0  0  0  0  0
    9.8047    5.3005   56.7253 C   0  0  0  0  0
    8.4255    4.6979   56.9558 C   0  0  0  0  0
    8.2237    3.4725   56.0844 C   0  0  0  0  0
    6.7873    2.9886   56.1830 C   0  0  0  0  0
    5.8852    3.7995   55.3171 C   0  0  0  0  0
    4.8562    5.9843   54.7881 C   0  0  0  0  0
    5.4990    6.2761   53.4386 C   0  0  0  0  0
    4.1922    6.0292   51.3725 C   0  0  0  0  0
    3.2203    6.5812   50.3891 C   0  0  0  0  0
    1.9516    7.0413   51.0878 C   0  0  0  0  0
    0.7594    6.9328   50.1507 C   0  0  0  0  0
    0.8675    7.8901   48.9704 C   0  0  0  0  0
    0.3024    9.2656   49.3066 C   0  0  0  0  0
    1.3092   10.1428   50.0488 C   0  0  0  0  0
    2.5291   10.4753   49.1951 C   0  0  0  0  0
    2.4948   10.4270   46.6778 C   0  0  0  0  0
    1.8443   10.8357   45.4204 C   0  0  0  0  0
    0.8437   11.8149   45.4214 C   0  0  0  0  0
    0.1653   12.1676   44.2429 C   0  0  0  0  0
   -0.8647   13.2308   44.3211 C   0  0  0  0  0
    0.4982   11.4962   43.0372 C   0  0  0  0  0
    1.5134   10.5326   43.0423 C   0  0  0  0  0
    2.1840   10.2073   44.2196 C   0  0  0  0  0
   -0.2568   11.6803   41.7729 C   0  0  0  0  0
   -1.5538   11.1607   41.6419 C   0  0  0  0  0
   -2.2088   10.4768   42.6730 C   0  0  0  0  0
   -3.5031    9.9885   42.4781 C   0  0  0  0  0
   -4.1651   10.1612   41.2560 C   0  0  0  0  0
   -3.5438   10.8293   40.1956 C   0  0  0  0  0
   -2.2531   11.3345   40.3481 C   0  0  0  0  0
   -0.4177   12.4449   39.4544 C   0  0  0  0  0
    0.1529   13.0861   38.3509 C   0  0  0  0  0
    1.4436   13.6132   38.4276 C   0  0  0  0  0
    2.1744   13.5041   39.6115 C   0  0  0  0  0
    1.6186   12.8623   40.7216 C   0  0  0  0  0
    0.3225   12.3247   40.6603 C   0  0  0  0  0
    4.5407    7.2723   55.5389 C   0  0  0  0  0
    4.4411    7.3905   59.1103 C   0  0  0  0  0
    3.3206    6.3713   58.8911 C   0  0  0  0  0
    3.3979    5.2738   59.9598 C   0  0  0  0  0
    3.3215    5.8705   61.3728 C   0  0  0  0  0
    4.4617    6.8805   61.5665 C   0  0  0  0  0
    4.3662    7.9955   60.5157 C   0  0  0  0  0
    5.2607    3.2351   54.3802 O   0  0  0  0  0
    5.7097    5.1626   55.5757 O   0  0  0  0  0
    4.5194    6.7491   52.5255 O   0  0  0  0  0
    4.7272    4.9124   51.1395 O   0  0  0  0  0
    3.3582    9.5057   46.6674 O   0  0  0  0  0
   -1.3721   13.8275   43.1740 O   0  0  0  0  0
   -1.2816   13.6265   45.4427 O   0  0  0  0  0
   -5.3294    9.7070   41.1087 O   0  0  0  0  0
   -1.6499   11.9590   39.3481 O   0  0  0  0  0
    2.0015   14.2415   37.3232 O   0  0  0  0  0
    5.6797    8.0740   55.6644 O   0  0  0  0  0
    6.9121    7.1618   57.9531 O   0  0  0  0  0
    6.5580    9.7016   57.5032 O   0  0  0  0  0
    4.3867    8.3914   58.1333 O   0  0  0  0  0
    2.0722    7.0024   58.9208 O   0  0  0  0  0
    2.3752    4.3385   59.7658 O   0  0  0  0  0
    3.8886    3.1335   57.7869 O   0  0  0  0  0
    4.3162    2.4616   60.4338 O   0  0  0  0  0
    2.1220    1.8063   59.1700 O   0  0  0  0  0
    3.4240    4.8467   62.3198 O   0  0  0  0  0
    1.8457    6.4072   63.9953 O   0  0  0  0  0
    0.6482    4.6591   62.2177 O   0  0  0  0  0
    2.0211    3.8183   64.2721 O   0  0  0  0  0
    4.3997    7.4307   62.8526 O   0  0  0  0  0
    6.0657    5.3171   63.5637 O   0  0  0  0  0
    5.7863    7.4860   65.2367 O   0  0  0  0  0
    7.0199    7.6777   62.9416 O   0  0  0  0  0
    5.4149    8.9008   60.6919 O   0  0  0  0  0
    2.1176   11.0374   47.9169 N   0  0  0  0  0
    5.8884    8.3575   57.3255 P   0  0  0  0  0
    3.1492    2.9070   59.2902 P   0  0  0  0  0
    1.9874    4.9055   63.2251 P   0  0  0  0  0
    5.8510    6.9962   63.6193 P   0  0  0  0  0
  1  2  1  0  0  0
  2  3  1  0  0  0
  3  4  1  0  0  0
  4  5  1  0  0  0
  5  6  1  0  0  0
  6  7  1  0  0  0
  7  8  1  0  0  0
  8 48  1  0  0  0
  9 48  1  0  0  0
  9 10  1  0  0  0
  9 40  1  0  0  0
 10 49  1  0  0  0
 11 49  1  0  0  0
 12 11  1  0  0  0
 12 13  1  0  0  0
 13 14  1  0  0  0
 14 15  1  0  0  0
 15 16  1  0  0  0
 16 17  1  0  0  0
 17 18  1  0  0  0
 18 75  1  0  0  0
 19 20  1  0  0  0
 21 22  1  0  0  0
 22 23  1  0  0  0
 23 52  1  0  0  0
 24 25  1  0  0  0
 24 27  1  0  0  0
 26 20  1  0  0  0
 28 29  1  0  0  0
 30 31  1  0  0  0
 31 32  1  0  0  0
 33 55  1  0  0  0
 33 28  1  0  0  0
 34 55  1  0  0  0
 35 36  1  0  0  0
 36 56  1  0  0  0
 37 38  1  0  0  0
 39 27  1  0  0  0
 39 34  1  0  0  0
 40 57  1  0  0  0
 41 60  1  0  0  0
 41 42  1  0  0  0
 42 61  1  0  0  0
 42 43  1  0  0  0
 43 62  1  0  0  0
 43 44  1  0  0  0
 44 66  1  0  0  0
 44 45  1  0  0  0
 45 70  1  0  0  0
 45 46  1  0  0  0
 46 74  1  0  0  0
 46 41  1  0  0  0
 75 19  1  0  0  0
 76 57  1  0  0  0
 76 58  1  0  0  0
 76 60  1  0  0  0
 77 62  1  0  0  0
 77 63  1  0  0  0
 77 64  1  0  0  0
 78 66  1  0  0  0
 78 67  1  0  0  0
 78 68  1  0  0  0
 79 70  1  0  0  0
 79 71  1  0  0  0
 79 72  1  0  0  0
  8 47  2  0  0  0
 11 50  2  0  0  0
 19 51  2  0  0  0
 20 21  2  0  0  0
 22 24  2  0  0  0
 23 53  2  0  0  0
 25 26  2  0  0  0
 27 28  2  0  0  0
 29 30  2  0  0  0
 31 54  2  0  0  0
 32 33  2  0  0  0
 34 35  2  0  0  0
 36 37  2  0  0  0
 38 39  2  0  0  0
 76 59  2  0  0  0
 77 65  2  0  0  0
 78 69  2  0  0  0
 79 73  2  0  0  0
M  CHG  7  58  -1  63  -1  64  -1  67  -1  68  -1  71  -1  72  -1
M  END
> <rmsd>
0.691676319

$$$$
MolPort-044-567-563 PubChem-13370040


 66 73  0  0  0  0  0  0  0  0999 V2000
    7.9353    4.2877   56.3912 C   0  0  0  0  0
    6.8559    4.8740   55.5002 C   0  0  0  0  0
    6.5803    3.9490   54.3068 C   0  0  0  0  0
    5.4855    4.5718   53.4433 C   0  0  0  0  0
    5.7770    6.0430   53.1249 C   0  0  0  0  0
    6.1941    6.7947   54.3940 C   0  0  0  0  0
    5.2907    8.2315   55.8504 C   0  0  0  0  0
    4.8595    8.1694   57.3240 C   0  0  0  0  0
    4.8581    9.5763   57.9411 C   0  0  0  0  0
    4.1235   10.5468   57.0022 C   0  0  0  0  0
    4.4852    9.3329   55.1378 C   0  0  0  0  0
    3.6805    9.3179   52.9631 C   0  0  0  0  0
    2.7250    8.1381   53.3019 C   0  0  0  0  0
    1.9971    7.5446   52.0739 C   0  0  0  0  0
    1.7367    8.5617   50.9334 C   0  0  0  0  0
    1.2728    7.8876   49.6165 C   0  0  0  0  0
    0.0165    7.0489   49.9142 C   0  0  0  0  0
   -0.7722    6.7674   48.6459 C   0  0  0  0  0
   -1.3785    8.0646   48.1036 C   0  0  0  0  0
   -0.4889    9.3145   48.2627 C   0  0  0  0  0
    1.0062    8.9473   48.4959 C   0  0  0  0  0
    1.9138   10.1971   48.5411 C   0  0  0  0  0
    3.1970    9.9465   49.3151 C   0  0  0  0  0
    2.8715    9.6247   50.7699 C   0  0  0  0  0
    4.1159    9.1724   51.5153 C   0  0  0  0  0
    2.4531   10.8805   51.5231 C   0  0  0  0  0
    2.9133   10.6133   52.9112 C   0  0  0  0  0
    2.2501   11.1156   53.9523 C   0  0  0  0  0
   -1.0198   10.1075   49.4599 C   0  0  0  0  0
   -0.6138   10.1112   46.9882 C   0  0  0  0  0
   -0.2126   10.2478   44.5530 C   0  0  0  0  0
    0.4658    9.4377   43.4407 C   0  0  0  0  0
    0.0192    9.9255   42.0556 C   0  0  0  0  0
   -0.4436   11.3829   42.0903 C   0  0  0  0  0
   -1.4845   11.6158   43.2074 C   0  0  0  0  0
   -1.3101   12.9842   43.8636 C   0  0  0  0  0
    2.3559    6.9353   49.1070 C   0  0  0  0  0
    4.0723   11.9460   57.5944 C   0  0  0  0  0
    3.6134    6.8449   58.6091 C   0  0  0  0  0
    3.6011    5.3423   58.2892 C   0  0  0  0  0
    3.0024    4.5304   59.4478 C   0  0  0  0  0
    3.2187    5.2349   60.7957 C   0  0  0  0  0
    2.7410    6.7153   60.7259 C   0  0  0  0  0
    3.5708    7.6963   61.5536 C   0  0  0  0  0
    7.2682    6.1509   55.0587 O   0  0  0  0  0
    5.0926    6.9846   55.2441 O   0  0  0  0  0
    4.7513   10.5740   55.7448 O   0  0  0  0  0
    4.8395    9.3891   53.7779 O   0  0  0  0  0
   -1.0583   11.2906   47.0020 O   0  0  0  0  0
   -0.2046    9.5337   45.7855 O   0  0  0  0  0
   -1.5304   10.5827   44.1824 O   0  0  0  0  0
   -1.5839   13.9978   42.9447 O   0  0  0  0  0
   -0.9902   11.7401   40.8594 O   0  0  0  0  0
    1.0694    9.7823   41.1463 O   0  0  0  0  0
    0.1681    8.0754   43.5679 O   0  0  0  0  0
    3.2791   12.7718   56.7967 O   0  0  0  0  0
    6.1746    9.9926   58.1468 O   0  0  0  0  0
    3.5839    7.5935   57.4294 O   0  0  0  0  0
    2.5080    7.1911   59.4094 O   0  0  0  0  0
    2.9247    8.9353   61.6069 O   0  0  0  0  0
    4.5711    5.1480   61.1482 O   0  0  0  0  0
    1.6343    4.3447   59.2275 O   0  0  0  0  0
    4.9102    4.9211   58.0549 O   0  0  0  0  0
    6.7779    6.1506   52.1497 O   0  0  0  0  0
    5.3167    3.8402   52.2687 O   0  0  0  0  0
    6.1516    2.6977   54.7555 O   0  0  0  0  0
  1  2  1  0  0  0
  2  3  1  0  0  0
  2 45  1  0  0  0
  3  4  1  0  0  0
  3 66  1  0  0  0
  4  5  1  0  0  0
  4 65  1  0  0  0
  5  6  1  0  0  0
  5 64  1  0  0  0
  6 45  1  0  0  0
  6 46  1  0  0  0
  7 46  1  0  0  0
  7  8  1  0  0  0
  8  9  1  0  0  0
  8 58  1  0  0  0
  9 10  1  0  0  0
  9 57  1  0  0  0
 10 47  1  0  0  0
 10 38  1  0  0  0
 11 47  1  0  0  0
 11 48  1  0  0  0
 11  7  1  0  0  0
 12 48  1  0  0  0
 12 13  1  0  0  0
 12 27  1  0  0  0
 13 14  1  0  0  0
 14 15  1  0  0  0
 15 16  1  0  0  0
 16 17  1  0  0  0
 16 37  1  0  0  0
 17 18  1  0  0  0
 18 19  1  0  0  0
 19 20  1  0  0  0
 20 21  1  0  0  0
 20 29  1  0  0  0
 20 30  1  0  0  0
 21 22  1  0  0  0
 21 16  1  0  0  0
 22 23  1  0  0  0
 23 24  1  0  0  0
 24 25  1  0  0  0
 24 26  1  0  0  0
 24 15  1  0  0  0
 25 12  1  0  0  0
 26 27  1  0  0  0
 30 50  1  0  0  0
 31 50  1  0  0  0
 31 32  1  0  0  0
 31 51  1  0  0  0
 32 33  1  0  0  0
 32 55  1  0  0  0
 33 34  1  0  0  0
 33 54  1  0  0  0
 34 35  1  0  0  0
 34 53  1  0  0  0
 35 51  1  0  0  0
 35 36  1  0  0  0
 36 52  1  0  0  0
 38 56  1  0  0  0
 39 58  1  0  0  0
 39 40  1  0  0  0
 39 59  1  0  0  0
 40 41  1  0  0  0
 40 63  1  0  0  0
 41 42  1  0  0  0
 41 62  1  0  0  0
 42 43  1  0  0  0
 42 61  1  0  0  0
 43 59  1  0  0  0
 43 44  1  0  0  0
 44 60  1  0  0  0
 27 28  2  0  0  0
 30 49  2  0  0  0
M  END
> <rmsd>
0.750846028

$$$$
MolPort-044-567-563 PubChem-13370040


 66 73  0  0  0  0  0  0  0  0999 V2000
    7.8599    4.3300   56.3114 C   0  0  0  0  0
    6.7588    5.0611   55.5659 C   0  0  0  0  0
    6.3974    4.3177   54.2727 C   0  0  0  0  0
    5.2835    5.0816   53.5602 C   0  0  0  0  0
    5.6066    6.5749   53.4321 C   0  0  0  0  0
    6.1073    7.1327   54.7691 C   0  0  0  0  0
    5.3206    8.3762   56.4534 C   0  0  0  0  0
    4.9580    8.1213   57.9248 C   0  0  0  0  0
    5.0310    9.4286   58.7283 C   0  0  0  0  0
    4.2843   10.5382   57.9703 C   0  0  0  0  0
    4.5180    9.5857   55.9410 C   0  0  0  0  0
    3.6110    9.8926   53.8291 C   0  0  0  0  0
    2.6353    8.7017   54.0514 C   0  0  0  0  0
    1.8313    8.3027   52.7927 C   0  0  0  0  0
    1.5499    9.4743   51.8174 C   0  0  0  0  0
    1.0026    9.0012   50.4461 C   0  0  0  0  0
   -0.2645    8.1612   50.6901 C   0  0  0  0  0
   -1.1210    8.0783   49.4374 C   0  0  0  0  0
   -1.7104    9.4530   49.1100 C   0  0  0  0  0
   -0.7746   10.6459   49.3931 C   0  0  0  0  0
    0.7173   10.2123   49.4966 C   0  0  0  0  0
    1.6657   11.4205   49.6662 C   0  0  0  0  0
    2.9755   11.0327   50.3315 C   0  0  0  0  0
    2.7091   10.5207   51.7431 C   0  0  0  0  0
    3.9723    9.9381   52.3545 C   0  0  0  0  0
    2.3675   11.6702   52.6820 C   0  0  0  0  0
    2.8841   11.2016   53.9948 C   0  0  0  0  0
    2.2876   11.5713   55.1277 C   0  0  0  0  0
   -1.2224   11.2785   50.7135 C   0  0  0  0  0
   -0.9341   11.6145   48.2481 C   0  0  0  0  0
   -0.6447   12.0772   45.8373 C   0  0  0  0  0
   -0.0462   11.4121   44.5911 C   0  0  0  0  0
   -0.5421   12.0983   43.3107 C   0  0  0  0  0
   -0.9557   13.5480   43.5688 C   0  0  0  0  0
   -1.9344   13.6500   44.7593 C   0  0  0  0  0
   -1.6852   14.9095   45.5871 C   0  0  0  0  0
    2.0292    8.1016   49.7558 C   0  0  0  0  0
    4.3062   11.8427   58.7507 C   0  0  0  0  0
    3.7324    6.6634   59.0783 C   0  0  0  0  0
    3.6566    5.2204   58.5565 C   0  0  0  0  0
    3.0878    4.2712   59.6219 C   0  0  0  0  0
    3.3903    4.7763   61.0408 C   0  0  0  0  0
    2.9577    6.2637   61.1993 C   0  0  0  0  0
    3.8568    7.0993   62.1100 C   0  0  0  0  0
    7.1905    6.3761   55.2832 O   0  0  0  0  0
    5.0541    7.2307   55.6928 O   0  0  0  0  0
    4.8523   10.7236   56.6980 O   0  0  0  0  0
    4.8090    9.8208   54.5853 O   0  0  0  0  0
   -1.3394   12.7915   48.4464 O   0  0  0  0  0
   -0.6012   11.1991   46.9582 O   0  0  0  0  0
   -1.9672   12.4933   45.5844 O   0  0  0  0  0
   -1.9696   16.0472   44.8312 O   0  0  0  0  0
   -1.5483   14.0861   42.4282 O   0  0  0  0  0
    0.4586   12.0561   42.3376 O   0  0  0  0  0
   -0.3811   10.0533   44.5453 O   0  0  0  0  0
    3.5029   12.7907   58.1157 O   0  0  0  0  0
    6.3685    9.7791   58.9212 O   0  0  0  0  0
    3.6710    7.5687   58.0155 O   0  0  0  0  0
    2.6778    6.9231   59.9743 O   0  0  0  0  0
    3.2540    8.3348   62.3660 O   0  0  0  0  0
    4.7544    4.6073   61.3080 O   0  0  0  0  0
    1.7056    4.1523   59.4489 O   0  0  0  0  0
    4.9390    4.8029   58.1996 O   0  0  0  0  0
    6.5631    6.7913   52.4307 O   0  0  0  0  0
    5.0357    4.5244   52.3066 O   0  0  0  0  0
    5.9505    3.0275   54.5670 O   0  0  0  0  0
  1  2  1  0  0  0
  2  3  1  0  0  0
  2 45  1  0  0  0
  3  4  1  0  0  0
  3 66  1  0  0  0
  4  5  1  0  0  0
  4 65  1  0  0  0
  5  6  1  0  0  0
  5 64  1  0  0  0
  6 45  1  0  0  0
  6 46  1  0  0  0
  7 46  1  0  0  0
  7  8  1  0  0  0
  8  9  1  0  0  0
  8 58  1  0  0  0
  9 10  1  0  0  0
  9 57  1  0  0  0
 10 47  1  0  0  0
 10 38  1  0  0  0
 11 47  1  0  0  0
 11 48  1  0  0  0
 11  7  1  0  0  0
 12 48  1  0  0  0
 12 13  1  0  0  0
 12 27  1  0  0  0
 13 14  1  0  0  0
 14 15  1  0  0  0
 15 16  1  0  0  0
 16 17  1  0  0  0
 16 37  1  0  0  0
 17 18  1  0  0  0
 18 19  1  0  0  0
 19 20  1  0  0  0
 20 21  1  0  0  0
 20 29  1  0  0  0
 20 30  1  0  0  0
 21 22  1  0  0  0
 21 16  1  0  0  0
 22 23  1  0  0  0
 23 24  1  0  0  0
 24 25  1  0  0  0
 24 26  1  0  0  0
 24 15  1  0  0  0
 25 12  1  0  0  0
 26 27  1  0  0  0
 30 50  1  0  0  0
 31 50  1  0  0  0
 31 32  1  0  0  0
 31 51  1  0  0  0
 32 33  1  0  0  0
 32 55  1  0  0  0
 33 34  1  0  0  0
 33 54  1  0  0  0
 34 35  1  0  0  0
 34 53  1  0  0  0
 35 51  1  0  0  0
 35 36  1  0  0  0
 36 52  1  0  0  0
 38 56  1  0  0  0
 39 58  1  0  0  0
 39 40  1  0  0  0
 39 59  1  0  0  0
 40 41  1  0  0  0
 40 63  1  0  0  0
 41 42  1  0  0  0
 41 62  1  0  0  0
 42 43  1  0  0  0
 42 61  1  0  0  0
 43 59  1  0  0  0
 43 44  1  0  0  0
 44 60  1  0  0  0
 27 28  2  0  0  0
 30 49  2  0  0  0
M  END
> <rmsd>
0.704860687

$$$$
MolPort-044-567-563 PubChem-13370040


 66 73  0  0  0  0  0  0  0  0999 V2000
    7.6091    4.6708   55.8415 C   0  0  0  0  0
    6.4430    5.4407   55.2498 C   0  0  0  0  0
    5.9874    4.8004   53.9314 C   0  0  0  0  0
    4.8107    5.5999   53.3763 C   0  0  0  0  0
    5.1047    7.1045   53.3490 C   0  0  0  0  0
    5.7049    7.5587   54.6843 C   0  0  0  0  0
    5.0417    8.6435   56.5242 C   0  0  0  0  0
    4.8020    8.2608   57.9931 C   0  0  0  0  0
    4.9239    9.4981   58.8954 C   0  0  0  0  0
    4.1054   10.6527   58.2951 C   0  0  0  0  0
    4.1861    9.8762   56.1807 C   0  0  0  0  0
    3.1083   10.3402   54.1806 C   0  0  0  0  0
    2.1679    9.1171   54.3787 C   0  0  0  0  0
    1.2699    8.8089   53.1587 C   0  0  0  0  0
    0.8969   10.0519   52.3107 C   0  0  0  0  0
    0.2465    9.6840   50.9523 C   0  0  0  0  0
   -0.9867    8.8034   51.2244 C   0  0  0  0  0
   -1.9403    8.8086   50.0411 C   0  0  0  0  0
   -2.5705   10.1946   49.8783 C   0  0  0  0  0
   -1.6291   11.3771   50.1857 C   0  0  0  0  0
   -0.1287   10.9642   50.1337 C   0  0  0  0  0
    0.8158   12.1715   50.3285 C   0  0  0  0  0
    2.1795   11.7543   50.8528 C   0  0  0  0  0
    2.0339   11.1222   52.2331 C   0  0  0  0  0
    3.3491   10.5145   52.6912 C   0  0  0  0  0
    1.7554   12.1833   53.2894 C   0  0  0  0  0
    2.3817   11.6172   54.5130 C   0  0  0  0  0
    1.8740   11.8806   55.7167 C   0  0  0  0  0
   -1.9766   11.8897   51.5859 C   0  0  0  0  0
   -1.8919   12.4341   49.1425 C   0  0  0  0  0
   -1.8032   13.1003   46.7638 C   0  0  0  0  0
   -1.2992   12.5521   45.4225 C   0  0  0  0  0
   -1.9048   13.3327   44.2478 C   0  0  0  0  0
   -2.3135   14.7482   44.6589 C   0  0  0  0  0
   -3.1942   14.7330   45.9276 C   0  0  0  0  0
   -2.8941   15.9238   46.8360 C   0  0  0  0  0
    1.2248    8.8640   50.1095 C   0  0  0  0  0
    4.1746   11.8881   59.1782 C   0  0  0  0  0
    3.6906    6.6897   59.1134 C   0  0  0  0  0
    3.5902    5.2939   58.4797 C   0  0  0  0  0
    3.1204    4.2492   59.5032 C   0  0  0  0  0
    3.5303    4.6404   60.9311 C   0  0  0  0  0
    3.0942    6.1013   61.2480 C   0  0  0  0  0
    4.0538    6.8750   62.1516 C   0  0  0  0  0
    6.8348    6.7823   55.0453 O   0  0  0  0  0
    4.7284    7.5602   55.6935 O   0  0  0  0  0
    4.5668   10.9534   57.0018 O   0  0  0  0  0
    4.3641   10.2283   54.8307 O   0  0  0  0  0
   -2.2938   13.5829   49.4705 O   0  0  0  0  0
   -1.6591   12.1334   47.7998 O   0  0  0  0  0
   -3.1466   13.5113   46.6525 O   0  0  0  0  0
   -3.2519   17.1149   46.2035 O   0  0  0  0  0
   -3.0024   15.3678   43.6182 O   0  0  0  0  0
   -0.9853   13.3899   43.1982 O   0  0  0  0  0
   -1.6206   11.1958   45.2892 O   0  0  0  0  0
    3.3117   12.8705   58.6909 O   0  0  0  0  0
    6.2683    9.8562   59.0104 O   0  0  0  0  0
    3.5331    7.6788   58.1388 O   0  0  0  0  0
    2.7087    6.8547   60.1089 O   0  0  0  0  0
    3.4590    8.0737   62.5576 O   0  0  0  0  0
    4.9134    4.4753   61.0742 O   0  0  0  0  0
    1.7303    4.1194   59.4310 O   0  0  0  0  0
    4.8445    4.9312   57.9884 O   0  0  0  0  0
    5.9747    7.4209   52.2967 O   0  0  0  0  0
    4.4693    5.1441   52.1039 O   0  0  0  0  0
    5.5810    3.4822   54.1506 O   0  0  0  0  0
  1  2  1  0  0  0
  2  3  1  0  0  0
  2 45  1  0  0  0
  3  4  1  0  0  0
  3 66  1  0  0  0
  4  5  1  0  0  0
  4 65  1  0  0  0
  5  6  1  0  0  0
  5 64  1  0  0  0
  6 45  1  0  0  0
  6 46  1  0  0  0
  7 46  1  0  0  0
  7  8  1  0  0  0
  8  9  1  0  0  0
  8 58  1  0  0  0
  9 10  1  0  0  0
  9 57  1  0  0  0
 10 47  1  0  0  0
 10 38  1  0  0  0
 11 47  1  0  0  0
 11 48  1  0  0  0
 11  7  1  0  0  0
 12 48  1  0  0  0
 12 13  1  0  0  0
 12 27  1  0  0  0
 13 14  1  0  0  0
 14 15  1  0  0  0
 15 16  1  0  0  0
 16 17  1  0  0  0
 16 37  1  0  0  0
 17 18  1  0  0  0
 18 19  1  0  0  0
 19 20  1  0  0  0
 20 21  1  0  0  0
 20 29  1  0  0  0
 20 30  1  0  0  0
 21 22  1  0  0  0
 21 16  1  0  0  0
 22 23  1  0  0  0
 23 24  1  0  0  0
 24 25  1  0  0  0
 24 26  1  0  0  0
 24 15  1  0  0  0
 25 12  1  0  0  0
 26 27  1  0  0  0
 30 50  1  0  0  0
 31 50  1  0  0  0
 31 32  1  0  0  0
 31 51  1  0  0  0
 32 33  1  0  0  0
 32 55  1  0  0  0
 33 34  1  0  0  0
 33 54  1  0  0  0
 34 35  1  0  0  0
 34 53  1  0  0  0
 35 51  1  0  0  0
 35 36  1  0  0  0
 36 52  1  0  0  0
 38 56  1  0  0  0
 39 58  1  0  0  0
 39 40  1  0  0  0
 39 59  1  0  0  0
 40 41  1  0  0  0
 40 63  1  0  0  0
 41 42  1  0  0  0
 41 62  1  0  0  0
 42 43  1  0  0  0
 42 61  1  0  0  0
 43 59  1  0  0  0
 43 44  1  0  0  0
 44 60  1  0  0  0
 27 28  2  0  0  0
 30 49  2  0  0  0
M  END
> <rmsd>
0.75260514

$$$$
MolPort-044-567-563 PubChem-13370040


 66 73  0  0  0  0  0  0  0  0999 V2000
    7.6706    3.9862   55.9695 C   0  0  0  0  0
    7.0884    4.0863   54.5774 C   0  0  0  0  0
    8.0460    3.4252   53.5755 C   0  0  0  0  0
    7.2696    2.6909   52.4729 C   0  0  0  0  0
    5.9908    3.4367   52.0746 C   0  0  0  0  0
    5.1776    3.8352   53.3349 C   0  0  0  0  0
    3.4473    5.2256   53.0487 C   0  0  0  0  0
    2.6003    5.1874   54.3355 C   0  0  0  0  0
    1.1330    5.4698   54.0107 C   0  0  0  0  0
    1.0438    6.7430   53.1594 C   0  0  0  0  0
    3.1205    6.4684   52.2015 C   0  0  0  0  0
    3.9555    8.5970   51.7973 C   0  0  0  0  0
    4.8148    8.0589   50.6242 C   0  0  0  0  0
    4.5619    8.7772   49.2796 C   0  0  0  0  0
    4.0837   10.2588   49.3873 C   0  0  0  0  0
    3.4245   10.7687   48.0694 C   0  0  0  0  0
    4.4634   10.6936   46.9431 C   0  0  0  0  0
    5.5068   11.7966   47.0965 C   0  0  0  0  0
    4.8901   13.2028   47.0415 C   0  0  0  0  0
    3.3532   13.2490   47.1478 C   0  0  0  0  0
    2.8416   12.2159   48.1921 C   0  0  0  0  0
    2.7431   12.7510   49.6278 C   0  0  0  0  0
    2.2342   11.6525   50.5411 C   0  0  0  0  0
    3.3071   10.5840   50.7025 C   0  0  0  0  0
    2.7122    9.3035   51.2700 C   0  0  0  0  0
    4.3156   11.0192   51.7586 C   0  0  0  0  0
    4.6954    9.7383   52.4049 C   0  0  0  0  0
    5.8094    9.6126   53.1343 C   0  0  0  0  0
    2.9656   14.6722   47.5330 C   0  0  0  0  0
    2.6925   12.9718   45.8178 C   0  0  0  0  0
    0.5970   12.7382   44.5287 C   0  0  0  0  0
   -0.8997   12.9558   44.7473 C   0  0  0  0  0
   -1.6236   12.8512   43.4033 C   0  0  0  0  0
   -1.2208   11.5679   42.6709 C   0  0  0  0  0
    0.3005   11.3347   42.7169 C   0  0  0  0  0
    1.0589   12.1910   41.7050 C   0  0  0  0  0
    2.2679    9.8568   47.6892 C   0  0  0  0  0
   -0.3991    7.1329   52.8839 C   0  0  0  0  0
    3.0093    5.4885   56.5045 C   0  0  0  0  0
    2.1983    6.3516   57.4868 C   0  0  0  0  0
    2.8751    6.4045   58.8646 C   0  0  0  0  0
    3.4825    5.0516   59.2706 C   0  0  0  0  0
    4.1786    4.3759   58.0745 C   0  0  0  0  0
    5.5477    3.8693   58.4867 C   0  0  0  0  0
    5.8166    3.4769   54.5484 O   0  0  0  0  0
    4.8171    5.1924   53.3442 O   0  0  0  0  0
    1.7333    6.5769   51.9396 O   0  0  0  0  0
    3.6408    7.6403   52.7936 O   0  0  0  0  0
    3.3830   12.8085   44.7715 O   0  0  0  0  0
    1.2968   12.9145   45.7539 O   0  0  0  0  0
    0.8288   11.4371   44.0284 O   0  0  0  0  0
    2.3721   11.7362   41.5942 O   0  0  0  0  0
   -1.8791   10.4778   43.2430 O   0  0  0  0  0
   -1.3404   13.9633   42.6036 O   0  0  0  0  0
   -1.1322   14.2056   45.3279 O   0  0  0  0  0
   -1.0481    7.4492   54.0795 O   0  0  0  0  0
    0.5789    4.3809   53.3330 O   0  0  0  0  0
    3.0709    6.1282   55.2639 O   0  0  0  0  0
    4.3120    5.2573   56.9842 O   0  0  0  0  0
    5.4166    2.7745   59.3405 O   0  0  0  0  0
    2.4916    4.1990   59.7621 O   0  0  0  0  0
    2.0089    6.8923   59.8456 O   0  0  0  0  0
    0.9043    5.8363   57.5893 O   0  0  0  0  0
    6.2967    4.5534   51.2827 O   0  0  0  0  0
    8.0745    2.4239   51.3603 O   0  0  0  0  0
    8.8722    4.4071   53.0249 O   0  0  0  0  0
  1  2  1  0  0  0
  2  3  1  0  0  0
  2 45  1  0  0  0
  3  4  1  0  0  0
  3 66  1  0  0  0
  4  5  1  0  0  0
  4 65  1  0  0  0
  5  6  1  0  0  0
  5 64  1  0  0  0
  6 45  1  0  0  0
  6 46  1  0  0  0
  7 46  1  0  0  0
  7  8  1  0  0  0
  8  9  1  0  0  0
  8 58  1  0  0  0
  9 10  1  0  0  0
  9 57  1  0  0  0
 10 47  1  0  0  0
 10 38  1  0  0  0
 11 47  1  0  0  0
 11 48  1  0  0  0
 11  7  1  0  0  0
 12 48  1  0  0  0
 12 13  1  0  0  0
 12 27  1  0  0  0
 13 14  1  0  0  0
 14 15  1  0  0  0
 15 16  1  0  0  0
 16 17  1  0  0  0
 16 37  1  0  0  0
 17 18  1  0  0  0
 18 19  1  0  0  0
 19 20  1  0  0  0
 20 21  1  0  0  0
 20 29  1  0  0  0
 20 30  1  0  0  0
 21 22  1  0  0  0
 21 16  1  0  0  0
 22 23  1  0  0  0
 23 24  1  0  0  0
 24 25  1  0  0  0
 24 26  1  0  0  0
 24 15  1  0  0  0
 25 12  1  0  0  0
 26 27  1  0  0  0
 30 50  1  0  0  0
 31 50  1  0  0  0
 31 32  1  0  0  0
 31 51  1  0  0  0
 32 33  1  0  0  0
 32 55  1  0  0  0
 33 34  1  0  0  0
 33 54  1  0  0  0
 34 35  1  0  0  0
 34 53  1  0  0  0
 35 51  1  0  0  0
 35 36  1  0  0  0
 36 52  1  0  0  0
 38 56  1  0  0  0
 39 58  1  0  0  0
 39 40  1  0  0  0
 39 59  1  0  0  0
 40 41  1  0  0  0
 40 63  1  0  0  0
 41 42  1  0  0  0
 41 62  1  0  0  0
 42 43  1  0  0  0
 42 61  1  0  0  0
 43 59  1  0  0  0
 43 44  1  0  0  0
 44 60  1  0  0  0
 27 28  2  0  0  0
 30 49  2  0  0  0
M  END
> <rmsd>
0.440933585

$$$$
MolPort-006-536-884 ChemDiv-V021-5159 MCULE-9416588757 PubChem-46002679 ZINC000150482290


 47 53  0  0  0  0  0  0  0  0999 V2000
   -2.1050   14.6066   43.5630 C   0  0  0  0  0
   -0.3743   12.8922   43.9910 C   0  0  0  0  0
   -0.3549   13.1564   45.3648 C   0  0  0  0  0
    0.4975   12.4405   46.2046 C   0  0  0  0  0
    1.3517   11.4463   45.7000 C   0  0  0  0  0
    1.3311   11.1748   44.3070 C   0  0  0  0  0
    2.1697    9.8648   42.3743 C   0  0  0  0  0
    0.4658   11.9057   43.4739 C   0  0  0  0  0
    2.2290   10.7281   46.6666 C   0  0  0  0  0
    3.1810    9.7898   46.2548 C   0  0  0  0  0
    3.9758    9.1493   47.2002 C   0  0  0  0  0
    3.8132    9.4554   48.5536 C   0  0  0  0  0
    4.4768    9.1891   50.9648 C   0  0  0  0  0
    4.3518    7.9349   51.8231 C   0  0  0  0  0
    5.5429    6.6069   50.0654 C   0  0  0  0  0
    5.6627    7.8577   49.1994 C   0  0  0  0  0
    6.3218    6.4882   52.4543 C   0  0  0  0  0
    6.1568    6.8294   53.9018 C   0  0  0  0  0
    3.9006    6.0621   54.6327 C   0  0  0  0  0
    3.4677    6.2751   56.0435 C   0  0  0  0  0
    3.6913    7.5227   56.6691 C   0  0  0  0  0
    3.3015    7.7324   58.0040 C   0  0  0  0  0
    2.6990    6.6691   58.6712 C   0  0  0  0  0
    1.6998    5.3130   60.2054 C   0  0  0  0  0
    2.4879    5.4685   58.0735 C   0  0  0  0  0
    2.8590    5.2236   56.7545 C   0  0  0  0  0
    5.8758    4.5419   54.9519 C   0  0  0  0  0
    7.2991    4.3618   55.3178 C   0  0  0  0  0
    7.8567    3.0588   55.3367 C   0  0  0  0  0
    9.1997    2.8515   55.6982 C   0  0  0  0  0
    9.9513    3.9708   56.0420 C   0  0  0  0  0
   11.6015    5.4036   56.6873 C   0  0  0  0  0
    9.4250    5.2207   56.0387 C   0  0  0  0  0
    8.1005    5.4634   55.6873 C   0  0  0  0  0
   -1.2161   13.5896   43.1206 O   0  0  0  0  0
    2.1569   10.1849   43.7593 O   0  0  0  0  0
    7.2638    5.7229   52.1136 O   0  0  0  0  0
    2.2349    6.6234   59.9704 O   0  0  0  0  0
    1.8812    4.6098   58.9681 O   0  0  0  0  0
    5.1098    3.5398   54.9831 O   0  0  0  0  0
   11.2747    4.0299   56.4315 O   0  0  0  0  0
   10.3906    6.1276   56.4275 O   0  0  0  0  0
    2.8759   10.3759   48.9084 N   0  0  0  0  0
    2.1149   10.9888   47.9996 N   0  0  0  0  0
    4.6096    8.8082   49.5595 N   0  0  0  0  0
    5.4128    6.9960   51.4668 N   0  0  0  0  0
    5.3384    5.8249   54.5722 N   0  0  0  0  0
  1 35  1  0  0  0
  2 35  1  0  0  0
  3  4  1  0  0  0
  5  6  1  0  0  0
  5  9  1  0  0  0
  6 36  1  0  0  0
  7 36  1  0  0  0
  8  2  1  0  0  0
  9 44  1  0  0  0
 10 11  1  0  0  0
 12 43  1  0  0  0
 12 45  1  0  0  0
 13 45  1  0  0  0
 13 14  1  0  0  0
 14 46  1  0  0  0
 15 46  1  0  0  0
 15 16  1  0  0  0
 16 45  1  0  0  0
 18 17  1  0  0  0
 18 47  1  0  0  0
 19 47  1  0  0  0
 19 20  1  0  0  0
 21 22  1  0  0  0
 23 38  1  0  0  0
 24 38  1  0  0  0
 24 39  1  0  0  0
 25 39  1  0  0  0
 25 23  1  0  0  0
 26 20  1  0  0  0
 27 28  1  0  0  0
 29 30  1  0  0  0
 31 41  1  0  0  0
 32 41  1  0  0  0
 32 42  1  0  0  0
 33 42  1  0  0  0
 33 31  1  0  0  0
 34 28  1  0  0  0
 46 17  1  0  0  0
 47 27  1  0  0  0
  2  3  2  0  0  0
  4  5  2  0  0  0
  6  8  2  0  0  0
  9 10  2  0  0  0
 11 12  2  0  0  0
 17 37  2  0  0  0
 20 21  2  0  0  0
 22 23  2  0  0  0
 25 26  2  0  0  0
 27 40  2  0  0  0
 28 29  2  0  0  0
 30 31  2  0  0  0
 33 34  2  0  0  0
 43 44  2  0  0  0
M  END
> <rmsd>
0.653615892

$$$$
MolPort-046-856-813 150341027 PubChem-25108784 ZINC000150341027


 48 48  0  0  0  0  0  0  0  0999 V2000
    5.3411    9.9068   50.9342 C   0  0  0  0  0
    4.0635    9.4534   51.6088 C   0  0  0  0  0
    3.2889    8.5755   50.6770 C   0  0  0  0  0
    2.0116    8.3619   48.4954 C   0  0  0  0  0
    2.9722    7.4347   47.7346 C   0  0  0  0  0
    4.1345    8.1160   47.0677 C   0  0  0  0  0
    1.2250    9.2343   47.5635 C   0  0  0  0  0
    1.0297   11.5232   46.4298 C   0  0  0  0  0
    0.0699   11.1241   45.4869 C   0  0  0  0  0
   -0.4591   12.0493   44.5806 C   0  0  0  0  0
   -0.0335   13.3871   44.6058 C   0  0  0  0  0
    0.9229   13.7827   45.5465 C   0  0  0  0  0
    1.4527   12.8552   46.4507 C   0  0  0  0  0
    4.1550    9.3208   54.1291 C   0  0  0  0  0
    4.4974    8.5539   55.3708 C   0  0  0  0  0
    5.9550    8.0622   55.4205 C   0  0  0  0  0
    6.9424    9.2087   55.3314 C   0  0  0  0  0
    6.2701    7.0081   54.3759 C   0  0  0  0  0
    3.4885    6.6683   56.7428 C   0  0  0  0  0
    2.5736    5.4875   56.7795 C   0  0  0  0  0
    1.4010    5.6632   57.7492 C   0  0  0  0  0
    1.8141    5.7173   59.1872 C   0  0  0  0  0
    3.5281    3.2661   56.0564 C   0  0  0  0  0
    4.4301    2.1026   56.3363 C   0  0  0  0  0
    3.9192    1.2837   57.5315 C   0  0  0  0  0
    4.8648    0.1341   57.8463 C   0  0  0  0  0
    2.5491    0.6983   57.2394 C   0  0  0  0  0
    6.6085    3.1675   55.5904 C   0  0  0  0  0
    7.9612    3.6668   55.9487 C   0  0  0  0  0
    3.1596    7.3408   50.9134 O   0  0  0  0  0
    4.9377    7.4281   46.3900 O   0  0  0  0  0
    4.3544    9.4809   47.1951 O   0  0  0  0  0
    0.2269    8.7473   46.9670 O   0  0  0  0  0
   -1.3728   14.0437   42.8028 O   0  0  0  0  0
   -1.4571   14.0041   42.7143 O   0  0  0  0  0
    3.6098   10.4510   54.2342 O   0  0  0  0  0
    4.2250    6.9374   57.7320 O   0  0  0  0  0
    2.3017    4.7014   59.7483 O   0  0  0  0  0
    1.6379    6.8882   59.9110 O   0  0  0  0  0
    2.9757    3.3615   54.9286 O   0  0  0  0  0
    6.2027    3.2566   54.4034 O   0  0  0  0  0
    2.7006    9.1508   49.5117 N   0  0  0  0  0
    1.6021   10.6036   47.3668 N   0  0  0  0  0
   -0.5483   14.3571   43.6870 N   0  0  0  0  0
    4.3893    8.7515   52.8402 N   0  0  0  0  0
    3.5574    7.4512   55.5481 N   0  0  0  0  0
    3.3220    4.2702   57.0536 N   0  0  0  0  0
    5.7832    2.5913   56.5964 N   0  0  0  0  0
  2  1  1  0  0  0
  2  3  1  0  0  0
  2 45  1  0  0  0
  3 42  1  0  0  0
  4 42  1  0  0  0
  4  5  1  0  0  0
  4  7  1  0  0  0
  5  6  1  0  0  0
  6 32  1  0  0  0
  7 43  1  0  0  0
  9 10  1  0  0  0
 11 12  1  0  0  0
 11 44  1  0  0  0
 13  8  1  0  0  0
 15 14  1  0  0  0
 15 16  1  0  0  0
 15 46  1  0  0  0
 16 17  1  0  0  0
 16 18  1  0  0  0
 20 19  1  0  0  0
 20 21  1  0  0  0
 20 47  1  0  0  0
 21 22  1  0  0  0
 22 39  1  0  0  0
 24 23  1  0  0  0
 24 25  1  0  0  0
 24 48  1  0  0  0
 25 26  1  0  0  0
 25 27  1  0  0  0
 29 28  1  0  0  0
 43  8  1  0  0  0
 44 35  1  0  0  0
 45 14  1  0  0  0
 46 19  1  0  0  0
 47 23  1  0  0  0
 48 28  1  0  0  0
  3 30  2  0  0  0
  6 31  2  0  0  0
  7 33  2  0  0  0
  8  9  2  0  0  0
 10 11  2  0  0  0
 12 13  2  0  0  0
 14 36  2  0  0  0
 19 37  2  0  0  0
 22 38  2  0  0  0
 23 40  2  0  0  0
 28 41  2  0  0  0
 44 34  2  0  0  0
M  CHG  2  44   1  35  -1
M  END
> <rmsd>
0.676424623

$$$$
MolPort-046-856-813 150341027 PubChem-25108784 ZINC000150341027


 48 48  0  0  0  0  0  0  0  0999 V2000
    5.3061    9.8912   50.8999 C   0  0  0  0  0
    4.0312    9.4363   51.5787 C   0  0  0  0  0
    3.2577    8.5523   50.6518 C   0  0  0  0  0
    1.9769    8.3260   48.4734 C   0  0  0  0  0
    2.9391    7.3990   47.7144 C   0  0  0  0  0
    4.0979    8.0814   47.0427 C   0  0  0  0  0
    1.1858    9.1922   47.5397 C   0  0  0  0  0
    0.9808   11.4760   46.3975 C   0  0  0  0  0
    0.0206   11.0701   45.4580 C   0  0  0  0  0
   -0.5131   11.9901   44.5490 C   0  0  0  0  0
   -0.0919   13.3293   44.5683 C   0  0  0  0  0
    0.8650   13.7318   45.5056 C   0  0  0  0  0
    1.3995   12.8094   46.4124 C   0  0  0  0  0
    4.1279    9.3138   54.0993 C   0  0  0  0  0
    4.4751    8.5530   55.3433 C   0  0  0  0  0
    5.9344    8.0661   55.3922 C   0  0  0  0  0
    6.9179    9.2155   55.2967 C   0  0  0  0  0
    6.2510    7.0090   54.3511 C   0  0  0  0  0
    3.4750    6.6694   56.7246 C   0  0  0  0  0
    2.5640    5.4858   56.7677 C   0  0  0  0  0
    1.3927    5.6614   57.7388 C   0  0  0  0  0
    1.8083    5.7225   59.1758 C   0  0  0  0  0
    3.5244    3.2647   56.0514 C   0  0  0  0  0
    4.4307    2.1053   56.3341 C   0  0  0  0  0
    3.9247    1.2894   57.5334 C   0  0  0  0  0
    4.8746    0.1441   57.8508 C   0  0  0  0  0
    2.5560    0.6984   57.2462 C   0  0  0  0  0
    6.6042    3.1743   55.5799 C   0  0  0  0  0
    7.9560    3.6794   55.9337 C   0  0  0  0  0
    3.1329    7.3180   50.8932 O   0  0  0  0  0
    4.9021    7.3935   46.3662 O   0  0  0  0  0
    4.3136    9.4475   47.1643 O   0  0  0  0  0
    0.1881    8.6997   46.9470 O   0  0  0  0  0
   -1.4367   13.9746   42.7653 O   0  0  0  0  0
   -1.5211   13.9344   42.6771 O   0  0  0  0  0
    3.5792   10.4427   54.2010 O   0  0  0  0  0
    4.2125    6.9447   57.7113 O   0  0  0  0  0
    2.3003    4.7104   59.7399 O   0  0  0  0  0
    1.6297    6.8957   59.8954 O   0  0  0  0  0
    2.9696    3.3540   54.9242 O   0  0  0  0  0
    6.1958    3.2575   54.3933 O   0  0  0  0  0
    2.6654    9.1211   49.4854 N   0  0  0  0  0
    1.5581   10.5619   47.3370 N   0  0  0  0  0
   -0.6115   14.2941   43.6467 N   0  0  0  0  0
    4.3616    8.7403   52.8122 N   0  0  0  0  0
    3.5391    7.4478   55.5267 N   0  0  0  0  0
    3.3169    4.2720   57.0450 N   0  0  0  0  0
    5.7827    2.5993   56.5896 N   0  0  0  0  0
  2  1  1  0  0  0
  2  3  1  0  0  0
  2 45  1  0  0  0
  3 42  1  0  0  0
  4 42  1  0  0  0
  4  5  1  0  0  0
  4  7  1  0  0  0
  5  6  1  0  0  0
  6 32  1  0  0  0
  7 43  1  0  0  0
  9 10  1  0  0  0
 11 12  1  0  0  0
 11 44  1  0  0  0
 13  8  1  0  0  0
 15 14  1  0  0  0
 15 16  1  0  0  0
 15 46  1  0  0  0
 16 17  1  0  0  0
 16 18  1  0  0  0
 20 19  1  0  0  0
 20 21  1  0  0  0
 20 47  1  0  0  0
 21 22  1  0  0  0
 22 39  1  0  0  0
 24 23  1  0  0  0
 24 25  1  0  0  0
 24 48  1  0  0  0
 25 26  1  0  0  0
 25 27  1  0  0  0
 29 28  1  0  0  0
 43  8  1  0  0  0
 44 35  1  0  0  0
 45 14  1  0  0  0
 46 19  1  0  0  0
 47 23  1  0  0  0
 48 28  1  0  0  0
  3 30  2  0  0  0
  6 31  2  0  0  0
  7 33  2  0  0  0
  8  9  2  0  0  0
 10 11  2  0  0  0
 12 13  2  0  0  0
 14 36  2  0  0  0
 19 37  2  0  0  0
 22 38  2  0  0  0
 23 40  2  0  0  0
 28 41  2  0  0  0
 44 34  2  0  0  0
M  CHG  2  44   1  35  -1
M  END
> <rmsd>
0.669600189

$$$$
MolPort-001-603-824 33356904 ChemDiv-C071-0538 MCULE-4695957788 PubChem-17382030 ZINC000033356904 ZINC33356904


 44 46  0  0  0  0  0  0  0  0999 V2000
   -1.4793   14.8063   42.6983 C   0  0  0  0  0
   -0.3115   13.4997   44.4845 C   0  0  0  0  0
   -0.1681   14.5798   45.3899 C   0  0  0  0  0
   -0.5344   16.9707   45.9354 C   0  0  0  0  0
    0.4977   14.3675   46.6082 C   0  0  0  0  0
    1.0214   13.1109   46.9425 C   0  0  0  0  0
    0.8687   12.0530   46.0412 C   0  0  0  0  0
    0.2092   12.2478   44.8281 C   0  0  0  0  0
    1.7246   12.8982   48.2254 C   0  0  0  0  0
    2.8901   11.4488   49.6962 C   0  0  0  0  0
    2.5480   13.6993   50.3426 C   0  0  0  0  0
    1.8696   13.9423   49.1462 C   0  0  0  0  0
    2.6922   14.7900   51.3595 C   0  0  0  0  0
    2.7306    9.1539   51.4745 C   0  0  0  0  0
    2.8705   10.0481   52.6998 C   0  0  0  0  0
    4.2778    9.9924   53.2786 C   0  0  0  0  0
    4.5339    8.6818   53.9414 C   0  0  0  0  0
    3.8631    7.0830   55.8262 C   0  0  0  0  0
    4.6037    5.9969   55.3425 C   0  0  0  0  0
    4.6447    4.7859   56.0495 C   0  0  0  0  0
    6.1745    3.7333   54.4032 C   0  0  0  0  0
    7.6029    4.1412   54.7326 C   0  0  0  0  0
    3.9340    4.6667   57.2466 C   0  0  0  0  0
    3.1860    5.7426   57.7426 C   0  0  0  0  0
    3.1545    6.9465   57.0227 C   0  0  0  0  0
   -0.9538   13.6045   43.2426 O   0  0  0  0  0
   -0.6848   15.8443   45.0834 O   0  0  0  0  0
    3.3063    8.9570   48.8704 O   0  0  0  0  0
    5.0202    9.9670   50.2883 O   0  0  0  0  0
    5.4099    7.9130   53.4639 O   0  0  0  0  0
    5.3744    3.6885   55.5816 O   0  0  0  0  0
    2.4956    4.4272   59.6753 O   0  0  0  0  0
    1.7991    6.5671   59.4256 O   0  0  0  0  0
    2.2404   11.6743   48.5246 N   0  0  0  0  0
    3.0376   12.4563   50.5946 N   0  0  0  0  0
    3.7985    8.3297   55.1213 N   0  0  0  0  0
    2.4646    5.6115   58.9750 N   0  0  0  0  0
    3.1690   15.9386   50.7532 F   0  0  0  0  0
    3.5763   14.4107   52.3548 F   0  0  0  0  0
    1.4602   15.0536   51.9289 F   0  0  0  0  0
    8.3418    4.1802   53.5670 F   0  0  0  0  0
    7.6217    5.3915   55.3208 F   0  0  0  0  0
    8.1642    3.2192   55.5963 F   0  0  0  0  0
    3.5412    9.8592   50.0486 S   0  0  0  0  0
  1 26  1  0  0  0
  2 26  1  0  0  0
  3 27  1  0  0  0
  3  5  1  0  0  0
  4 27  1  0  0  0
  6  7  1  0  0  0
  6  9  1  0  0  0
  8  2  1  0  0  0
 10 34  1  0  0  0
 11 35  1  0  0  0
 12  9  1  0  0  0
 13 11  1  0  0  0
 13 38  1  0  0  0
 13 39  1  0  0  0
 13 40  1  0  0  0
 14 15  1  0  0  0
 15 16  1  0  0  0
 16 17  1  0  0  0
 17 36  1  0  0  0
 19 20  1  0  0  0
 20 31  1  0  0  0
 21 31  1  0  0  0
 21 22  1  0  0  0
 22 41  1  0  0  0
 22 42  1  0  0  0
 22 43  1  0  0  0
 23 24  1  0  0  0
 24 37  1  0  0  0
 25 18  1  0  0  0
 36 18  1  0  0  0
 37 32  1  0  0  0
 44 10  1  0  0  0
 44 14  1  0  0  0
  2  3  2  0  0  0
  5  6  2  0  0  0
  7  8  2  0  0  0
  9 34  2  0  0  0
 10 35  2  0  0  0
 11 12  2  0  0  0
 17 30  2  0  0  0
 18 19  2  0  0  0
 20 23  2  0  0  0
 24 25  2  0  0  0
 37 33  2  0  0  0
 44 28  2  0  0  0
 44 29  2  0  0  0
M  CHG  2  37   1  32  -1
M  END
> <rmsd>
0.727773666

$$$$
MolPort-000-759-657 LN01792290 MCULE-4228526751 PubChem-44661295


 74 83  0  0  0  0  0  0  0  0999 V2000
   -0.9676   15.8910   44.2143 C   0  0  0  0  0
    0.2519   15.0703   43.8167 C   0  0  0  0  0
    0.4587   13.9180   44.7570 C   0  0  0  0  0
    0.8839   12.7794   43.8543 C   0  0  0  0  0
    2.2831   12.3596   44.2736 C   0  0  0  0  0
    2.5077   12.9091   45.6716 C   0  0  0  0  0
    2.3479   11.7968   46.7196 C   0  0  0  0  0
    3.1689   12.1178   47.9713 C   0  0  0  0  0
    2.8932   11.1460   49.0900 C   0  0  0  0  0
    1.7809   10.3886   49.1578 C   0  0  0  0  0
    1.7550    9.2608   50.1352 C   0  0  0  0  0
    1.9466    7.9517   49.3673 C   0  0  0  0  0
    0.9301    7.8160   48.2188 C   0  0  0  0  0
    0.9554    9.0393   47.2805 C   0  0  0  0  0
    0.7413   10.3524   48.0487 C   0  0  0  0  0
   -0.6653   10.3194   48.6520 C   0  0  0  0  0
    0.8753   11.5556   47.0812 C   0  0  0  0  0
    0.1775   12.8398   47.5926 C   0  0  0  0  0
    0.8946   14.1420   47.2210 C   0  0  0  0  0
    1.5453   14.0988   45.8350 C   0  0  0  0  0
    2.3621   15.3766   45.6698 C   0  0  0  0  0
    3.0134    6.1931   50.2043 C   0  0  0  0  0
    4.0382    4.2986   49.4796 C   0  0  0  0  0
    3.8397    3.0044   48.7147 C   0  0  0  0  0
    4.7677    4.0460   50.8027 C   0  0  0  0  0
    4.9654    5.3891   51.5017 C   0  0  0  0  0
    6.8230    5.7304   52.6920 C   0  0  0  0  0
    7.2841    5.2127   54.8967 C   0  0  0  0  0
    8.1159    4.3109   55.7944 C   0  0  0  0  0
    7.4318    6.6756   55.3281 C   0  0  0  0  0
    6.5842    7.5512   54.4089 C   0  0  0  0  0
    6.8647    7.2467   52.9380 C   0  0  0  0  0
    3.6303    6.1257   51.6075 C   0  0  0  0  0
    2.8764    7.5934   53.1290 C   0  0  0  0  0
    3.3768    7.0755   54.4708 C   0  0  0  0  0
    3.6221    5.2641   55.8012 C   0  0  0  0  0
    3.6853    3.7451   55.8238 C   0  0  0  0  0
    2.7514    5.7537   56.9660 C   0  0  0  0  0
    2.8741    5.2707   59.1243 C   0  0  0  0  0
    2.5692    3.3069   60.1426 C   0  0  0  0  0
    2.8940    1.8180   60.1084 C   0  0  0  0  0
    2.4560    3.8942   61.5710 C   0  0  0  0  0
    3.0700    5.3049   61.6705 C   0  0  0  0  0
    2.8434    6.1334   60.3982 C   0  0  0  0  0
    1.9915    7.0422   56.6180 C   0  0  0  0  0
    2.7408    7.9065   55.5995 C   0  0  0  0  0
    0.1380   14.4020   42.4572 C   0  0  0  0  0
    0.7679   15.3489   41.4095 C   0  0  0  0  0
   -0.3081   16.0347   40.5738 C   0  0  0  0  0
   -1.2655   15.0069   39.9608 C   0  0  0  0  0
   -0.8128   14.6277   38.5663 C   0  0  0  0  0
   -1.3597   13.7474   40.8253 C   0  0  0  0  0
    1.7974    6.8780   50.2498 O   0  0  0  0  0
    2.7837    4.8873   49.7241 O   0  0  0  0  0
    3.4934    3.2948   47.3926 O   0  0  0  0  0
    6.0085    3.4577   50.5618 O   0  0  0  0  0
    5.5177    5.2131   52.7735 O   0  0  0  0  0
    7.7044    5.0394   53.5591 O   0  0  0  0  0
    6.9925    6.8335   56.6435 O   0  0  0  0  0
    6.8091    8.9031   54.6800 O   0  0  0  0  0
    8.1139    7.7486   52.5602 O   0  0  0  0  0
    3.8413    7.4111   52.1272 O   0  0  0  0  0
    3.0800    5.6994   54.5806 O   0  0  0  0  0
    4.6494    3.2922   54.9159 O   0  0  0  0  0
    3.5449    5.9488   58.1015 O   0  0  0  0  0
    3.4867    4.0289   59.3602 O   0  0  0  0  0
    2.5284    1.2827   58.8720 O   0  0  0  0  0
    3.0055    3.0485   62.5477 O   0  0  0  0  0
    4.4416    5.2259   61.9221 O   0  0  0  0  0
    1.6181    6.7998   60.4784 O   0  0  0  0  0
    0.7380    6.7102   56.1065 O   0  0  0  0  0
    3.7321    8.6474   56.2424 O   0  0  0  0  0
    0.8929   13.2123   42.5120 O   0  0  0  0  0
   -1.2243   14.0860   42.1813 O   0  0  0  0  0
  2  1  1  0  0  0
  2  3  1  0  0  0
  3  4  1  0  0  0
  4  5  1  0  0  0
  4 73  1  0  0  0
  5  6  1  0  0  0
  6  7  1  0  0  0
  7  8  1  0  0  0
  8  9  1  0  0  0
 11 10  1  0  0  0
 11 12  1  0  0  0
 12 13  1  0  0  0
 12 53  1  0  0  0
 13 14  1  0  0  0
 14 15  1  0  0  0
 15 16  1  0  0  0
 15 17  1  0  0  0
 15 10  1  0  0  0
 17 18  1  0  0  0
 17  7  1  0  0  0
 18 19  1  0  0  0
 19 20  1  0  0  0
 20 21  1  0  0  0
 20  3  1  0  0  0
 20  6  1  0  0  0
 22 53  1  0  0  0
 22 54  1  0  0  0
 23 54  1  0  0  0
 23 24  1  0  0  0
 23 25  1  0  0  0
 24 55  1  0  0  0
 25 56  1  0  0  0
 25 26  1  0  0  0
 26 57  1  0  0  0
 26 33  1  0  0  0
 27 57  1  0  0  0
 27 58  1  0  0  0
 28 58  1  0  0  0
 28 29  1  0  0  0
 28 30  1  0  0  0
 30 59  1  0  0  0
 30 31  1  0  0  0
 31 60  1  0  0  0
 31 32  1  0  0  0
 32 61  1  0  0  0
 32 27  1  0  0  0
 33 62  1  0  0  0
 33 22  1  0  0  0
 34 62  1  0  0  0
 35 34  1  0  0  0
 35 63  1  0  0  0
 36 63  1  0  0  0
 36 37  1  0  0  0
 36 38  1  0  0  0
 37 64  1  0  0  0
 38 65  1  0  0  0
 38 45  1  0  0  0
 39 65  1  0  0  0
 39 66  1  0  0  0
 40 66  1  0  0  0
 40 41  1  0  0  0
 40 42  1  0  0  0
 41 67  1  0  0  0
 42 68  1  0  0  0
 42 43  1  0  0  0
 43 69  1  0  0  0
 43 44  1  0  0  0
 44 70  1  0  0  0
 44 39  1  0  0  0
 45 71  1  0  0  0
 45 46  1  0  0  0
 46 72  1  0  0  0
 46 35  1  0  0  0
 47 73  1  0  0  0
 47 48  1  0  0  0
 47  2  1  0  0  0
 47 74  1  0  0  0
 48 49  1  0  0  0
 49 50  1  0  0  0
 50 51  1  0  0  0
 50 52  1  0  0  0
 52 74  1  0  0  0
  9 10  2  0  0  0
M  END
> <rmsd>
0.761389017

$$$$
MolPort-005-945-097 MCULE-6138495956 PubChem-45359827


 84 90  0  0  0  0  0  0  0  0999 V2000
   -3.9331   12.8871   40.0229 C   0  0  0  0  0
   -3.0368   14.1205   39.9353 C   0  0  0  0  0
   -1.9110   14.0250   38.8705 C   0  0  0  0  0
   -0.6629   14.7900   39.3237 C   0  0  0  0  0
   -0.2450   14.4095   40.7508 C   0  0  0  0  0
   -1.4320   13.8661   41.5590 C   0  0  0  0  0
   -0.9700   12.7190   43.4081 C   0  0  0  0  0
    0.3139   12.6983   44.2386 C   0  0  0  0  0
   -0.7653   13.0354   46.2475 C   0  0  0  0  0
   -2.1619   13.0261   45.6030 C   0  0  0  0  0
   -2.1333   12.2504   44.2875 C   0  0  0  0  0
   -0.0138   11.9547   48.0530 C   0  0  0  0  0
   -0.4263   10.7443   48.9042 C   0  0  0  0  0
    1.6064    9.6846   48.7336 C   0  0  0  0  0
    2.2223   10.8267   47.9030 C   0  0  0  0  0
    1.5025   12.1547   48.1492 C   0  0  0  0  0
    2.8192    8.8995   50.4571 C   0  0  0  0  0
    2.1958    7.6920   51.1859 C   0  0  0  0  0
    3.9253    7.3822   52.6035 C   0  0  0  0  0
    4.7478    8.5564   52.0678 C   0  0  0  0  0
    3.8261    9.5738   51.3956 C   0  0  0  0  0
    4.0833    5.8180   54.1952 C   0  0  0  0  0
    4.5049    6.4195   55.5457 C   0  0  0  0  0
    4.1771    5.4919   56.7424 C   0  0  0  0  0
    5.0358    3.8204   55.3872 C   0  0  0  0  0
    4.3402    4.3107   54.1141 C   0  0  0  0  0
    6.5699    2.3914   54.6514 C   0  0  0  0  0
    7.7073    2.3264   55.6267 C   0  0  0  0  0
    8.5241    3.3644   55.8509 C   0  0  0  0  0
    8.2806    4.7040   55.2196 C   0  0  0  0  0
    9.6567    3.1976   56.8116 C   0  0  0  0  0
   10.9554    3.6682   56.1759 C   0  0  0  0  0
   12.1177    3.3489   57.0591 C   0  0  0  0  0
   13.1743    2.6467   56.6295 C   0  0  0  0  0
   13.2623    2.1382   55.2239 C   0  0  0  0  0
   14.3053    2.3926   57.5670 C   0  0  0  0  0
   14.3931    0.9178   57.9047 C   0  0  0  0  0
   15.6347    0.6638   58.6962 C   0  0  0  0  0
   16.5961   -0.1724   58.2907 C   0  0  0  0  0
   17.8037   -0.3559   59.1388 C   0  0  0  0  0
   16.4985   -0.9279   57.0060 C   0  0  0  0  0
    5.0197    5.8335   57.9664 C   0  0  0  0  0
    3.8892    6.8819   59.6635 C   0  0  0  0  0
    2.4799    6.3311   59.3511 C   0  0  0  0  0
    2.1026    5.1650   60.2713 C   0  0  0  0  0
    2.5530    5.3943   61.7244 C   0  0  0  0  0
    3.8414    6.2192   61.8116 C   0  0  0  0  0
    0.9847    5.0446   63.2621 C   0  0  0  0  0
   -0.5405    4.8757   63.0304 C   0  0  0  0  0
   -1.2640    4.7165   64.3684 C   0  0  0  0  0
   -0.8945    5.8408   65.3426 C   0  0  0  0  0
    0.5518    6.3034   65.1305 C   0  0  0  0  0
    1.1943    6.9702   50.3037 C   0  0  0  0  0
   -1.9312   10.5492   48.8871 C   0  0  0  0  0
   -2.6103   14.5545   41.2163 O   0  0  0  0  0
   -1.1901   14.0150   42.9264 O   0  0  0  0  0
    0.2061   13.5545   45.3575 O   0  0  0  0  0
   -3.3485   12.3908   43.6133 O   0  0  0  0  0
   -3.0953   12.4647   46.4762 O   0  0  0  0  0
   -0.3917   11.7639   46.7161 O   0  0  0  0  0
    0.2205    9.5666   48.4657 O   0  0  0  0  0
    1.8349   12.6753   49.4027 O   0  0  0  0  0
    3.5955   10.9430   48.1288 O   0  0  0  0  0
    1.8338    9.8359   50.1159 O   0  0  0  0  0
    3.2094    6.7868   51.5488 O   0  0  0  0  0
    4.5916   10.5026   50.6876 O   0  0  0  0  0
    5.4340    9.1684   53.1170 O   0  0  0  0  0
    4.7944    6.4406   53.1648 O   0  0  0  0  0
    4.2206    4.0909   56.4988 O   0  0  0  0  0
    3.1291    3.6402   53.9296 O   0  0  0  0  0
    5.3418    2.4566   55.3206 O   0  0  0  0  0
    4.6524    7.0849   58.4926 O   0  0  0  0  0
    4.5849    6.1165   60.6252 O   0  0  0  0  0
    1.5412    6.0355   62.4424 O   0  0  0  0  0
    1.3381    5.2534   64.6193 O   0  0  0  0  0
   -1.0590    5.3901   66.6513 O   0  0  0  0  0
   -2.6469    4.6748   64.1796 O   0  0  0  0  0
   -1.0646    5.9660   62.3270 O   0  0  0  0  0
    2.6776    3.9899   59.7873 O   0  0  0  0  0
    1.5392    7.3546   59.4736 O   0  0  0  0  0
    3.8951    7.6609   55.7250 O   0  0  0  0  0
    0.7613   13.4431   40.6981 O   0  0  0  0  0
   -0.9026   16.1652   39.2580 O   0  0  0  0  0
   -1.5666   12.6927   38.6065 O   0  0  0  0  0
  2  1  1  0  0  0
  2  3  1  0  0  0
  2 55  1  0  0  0
  3  4  1  0  0  0
  3 84  1  0  0  0
  4  5  1  0  0  0
  4 83  1  0  0  0
  5  6  1  0  0  0
  5 82  1  0  0  0
  6 55  1  0  0  0
  6 56  1  0  0  0
  7 56  1  0  0  0
  7  8  1  0  0  0
  8 57  1  0  0  0
  9 57  1  0  0  0
  9 10  1  0  0  0
  9 60  1  0  0  0
 10 11  1  0  0  0
 10 59  1  0  0  0
 11 58  1  0  0  0
 11  7  1  0  0  0
 12 60  1  0  0  0
 12 13  1  0  0  0
 13 61  1  0  0  0
 13 54  1  0  0  0
 14 61  1  0  0  0
 14 15  1  0  0  0
 14 64  1  0  0  0
 15 16  1  0  0  0
 15 63  1  0  0  0
 16 62  1  0  0  0
 16 12  1  0  0  0
 17 64  1  0  0  0
 17 18  1  0  0  0
 18 65  1  0  0  0
 18 53  1  0  0  0
 19 65  1  0  0  0
 19 20  1  0  0  0
 19 68  1  0  0  0
 20 21  1  0  0  0
 20 67  1  0  0  0
 21 66  1  0  0  0
 21 17  1  0  0  0
 22 68  1  0  0  0
 22 23  1  0  0  0
 23 24  1  0  0  0
 23 81  1  0  0  0
 24 69  1  0  0  0
 24 42  1  0  0  0
 25 69  1  0  0  0
 25 26  1  0  0  0
 25 71  1  0  0  0
 26 70  1  0  0  0
 26 22  1  0  0  0
 27 71  1  0  0  0
 27 28  1  0  0  0
 30 29  1  0  0  0
 31 29  1  0  0  0
 31 32  1  0  0  0
 32 33  1  0  0  0
 35 34  1  0  0  0
 36 34  1  0  0  0
 36 37  1  0  0  0
 37 38  1  0  0  0
 40 39  1  0  0  0
 41 39  1  0  0  0
 42 72  1  0  0  0
 43 72  1  0  0  0
 43 44  1  0  0  0
 43 73  1  0  0  0
 44 45  1  0  0  0
 44 80  1  0  0  0
 45 46  1  0  0  0
 45 79  1  0  0  0
 46 47  1  0  0  0
 46 74  1  0  0  0
 47 73  1  0  0  0
 48 74  1  0  0  0
 48 49  1  0  0  0
 48 75  1  0  0  0
 49 50  1  0  0  0
 49 78  1  0  0  0
 50 51  1  0  0  0
 50 77  1  0  0  0
 51 52  1  0  0  0
 51 76  1  0  0  0
 52 75  1  0  0  0
 28 29  2  0  0  0
 33 34  2  0  0  0
 38 39  2  0  0  0
M  END
> <rmsd>
0.647803307

$$$$
MolPort-005-945-097 MCULE-6138495956 PubChem-45359827


 84 90  0  0  0  0  0  0  0  0999 V2000
   -1.4019   14.5627   39.7388 C   0  0  0  0  0
   -0.4000   15.7130   39.8127 C   0  0  0  0  0
    0.8148   15.5722   38.8564 C   0  0  0  0  0
    2.0715   16.1964   39.4725 C   0  0  0  0  0
    2.3102   15.7053   40.9070 C   0  0  0  0  0
    1.0063   15.2296   41.5634 C   0  0  0  0  0
    1.1813   13.9499   43.3746 C   0  0  0  0  0
    2.3689   13.7696   44.3210 C   0  0  0  0  0
    1.1260   14.0968   46.2345 C   0  0  0  0  0
   -0.1946   14.2476   45.4604 C   0  0  0  0  0
   -0.0999   13.5427   44.1087 C   0  0  0  0  0
    1.5981   12.8592   48.0340 C   0  0  0  0  0
    1.0010   11.6479   48.7663 C   0  0  0  0  0
    2.9434   10.4193   48.7259 C   0  0  0  0  0
    3.7342   11.5431   48.0293 C   0  0  0  0  0
    3.1086   12.9159   48.2864 C   0  0  0  0  0
    3.9061    9.4383   50.5060 C   0  0  0  0  0
    3.1126    8.2555   51.0967 C   0  0  0  0  0
    4.6585    7.7166   52.6512 C   0  0  0  0  0
    5.6271    8.8381   52.2693 C   0  0  0  0  0
    4.8672    9.9685   51.5758 C   0  0  0  0  0
    4.5227    6.0630   54.1521 C   0  0  0  0  0
    4.8560    6.5521   55.5708 C   0  0  0  0  0
    4.3322    5.5963   56.6719 C   0  0  0  0  0
    5.1779    3.9276   55.3051 C   0  0  0  0  0
    4.6576    4.5450   54.0038 C   0  0  0  0  0
    6.6514    2.4065   54.6329 C   0  0  0  0  0
    7.6754    2.1878   55.7065 C   0  0  0  0  0
    8.5507    3.1344   56.0706 C   0  0  0  0  0
    8.4862    4.5219   55.5021 C   0  0  0  0  0
    9.5628    2.8156   57.1230 C   0  0  0  0  0
   10.9540    3.1997   56.6441 C   0  0  0  0  0
   11.9904    2.7307   57.6129 C   0  0  0  0  0
   13.0215    1.9595   57.2439 C   0  0  0  0  0
   13.2068    1.5196   55.8246 C   0  0  0  0  0
   14.0270    1.5552   58.2677 C   0  0  0  0  0
   13.9551    0.0628   58.5214 C   0  0  0  0  0
   15.0850   -0.3436   59.4107 C   0  0  0  0  0
   16.0078   -1.2408   59.0483 C   0  0  0  0  0
   17.1043   -1.5770   59.9950 C   0  0  0  0  0
   15.9760   -1.9158   57.7164 C   0  0  0  0  0
    5.0736    5.7955   57.9893 C   0  0  0  0  0
    3.8714    6.8512   59.6317 C   0  0  0  0  0
    2.4590    6.4473   59.1532 C   0  0  0  0  0
    1.8937    5.2732   59.9601 C   0  0  0  0  0
    2.2137    5.3842   61.4608 C   0  0  0  0  0
    3.5522    6.0836   61.7209 C   0  0  0  0  0
    0.4750    5.0973   62.8176 C   0  0  0  0  0
   -1.0280    5.0795   62.4316 C   0  0  0  0  0
   -1.8931    4.9162   63.6823 C   0  0  0  0  0
   -1.5292    5.9497   64.7542 C   0  0  0  0  0
   -0.0350    6.2902   64.7097 C   0  0  0  0  0
    2.1471    7.6745   50.0805 C   0  0  0  0  0
   -0.5056   11.5909   48.5938 C   0  0  0  0  0
   -0.0690   16.0387   41.1527 O   0  0  0  0  0
    1.1214   15.2839   42.9543 O   0  0  0  0  0
    2.2224   14.5720   45.4747 O   0  0  0  0  0
   -1.2249   13.8277   43.3315 O   0  0  0  0  0
   -1.2552   13.7278   46.2046 O   0  0  0  0  0
    1.3415   12.7738   46.6580 O   0  0  0  0  0
    1.5865   10.4413   48.3203 O   0  0  0  0  0
    3.3564   13.3378   49.5955 O   0  0  0  0  0
    5.0827   11.5228   48.3917 O   0  0  0  0  0
    3.0429   10.4766   50.1303 O   0  0  0  0  0
    4.0042    7.2446   51.4986 O   0  0  0  0  0
    5.7759   10.8603   51.0021 O   0  0  0  0  0
    6.2540    9.3296   53.4146 O   0  0  0  0  0
    5.3838    6.6720   53.2342 O   0  0  0  0  0
    4.2810    4.2119   56.3482 O   0  0  0  0  0
    3.4187    3.9973   53.6639 O   0  0  0  0  0
    5.3723    2.5471   55.1846 O   0  0  0  0  0
    4.7627    7.0456   58.5536 O   0  0  0  0  0
    4.3996    5.9766   60.6067 O   0  0  0  0  0
    1.1930    6.0756   62.1169 O   0  0  0  0  0
    0.7067    5.2017   64.2126 O   0  0  0  0  0
   -1.8619    5.4475   66.0112 O   0  0  0  0  0
   -3.2486    5.0096   63.3602 O   0  0  0  0  0
   -1.3845    6.2480   61.7494 O   0  0  0  0  0
    2.4127    4.0781   59.4622 O   0  0  0  0  0
    1.6009    7.5437   59.2477 O   0  0  0  0  0
    4.3388    7.8324   55.7668 O   0  0  0  0  0
    3.2311   14.6559   40.8915 O   0  0  0  0  0
    1.9570   17.5892   39.4685 O   0  0  0  0  0
    1.0697   14.2300   38.5454 O   0  0  0  0  0
  2  1  1  0  0  0
  2  3  1  0  0  0
  2 55  1  0  0  0
  3  4  1  0  0  0
  3 84  1  0  0  0
  4  5  1  0  0  0
  4 83  1  0  0  0
  5  6  1  0  0  0
  5 82  1  0  0  0
  6 55  1  0  0  0
  6 56  1  0  0  0
  7 56  1  0  0  0
  7  8  1  0  0  0
  8 57  1  0  0  0
  9 57  1  0  0  0
  9 10  1  0  0  0
  9 60  1  0  0  0
 10 11  1  0  0  0
 10 59  1  0  0  0
 11 58  1  0  0  0
 11  7  1  0  0  0
 12 60  1  0  0  0
 12 13  1  0  0  0
 13 61  1  0  0  0
 13 54  1  0  0  0
 14 61  1  0  0  0
 14 15  1  0  0  0
 14 64  1  0  0  0
 15 16  1  0  0  0
 15 63  1  0  0  0
 16 62  1  0  0  0
 16 12  1  0  0  0
 17 64  1  0  0  0
 17 18  1  0  0  0
 18 65  1  0  0  0
 18 53  1  0  0  0
 19 65  1  0  0  0
 19 20  1  0  0  0
 19 68  1  0  0  0
 20 21  1  0  0  0
 20 67  1  0  0  0
 21 66  1  0  0  0
 21 17  1  0  0  0
 22 68  1  0  0  0
 22 23  1  0  0  0
 23 24  1  0  0  0
 23 81  1  0  0  0
 24 69  1  0  0  0
 24 42  1  0  0  0
 25 69  1  0  0  0
 25 26  1  0  0  0
 25 71  1  0  0  0
 26 70  1  0  0  0
 26 22  1  0  0  0
 27 71  1  0  0  0
 27 28  1  0  0  0
 30 29  1  0  0  0
 31 29  1  0  0  0
 31 32  1  0  0  0
 32 33  1  0  0  0
 35 34  1  0  0  0
 36 34  1  0  0  0
 36 37  1  0  0  0
 37 38  1  0  0  0
 40 39  1  0  0  0
 41 39  1  0  0  0
 42 72  1  0  0  0
 43 72  1  0  0  0
 43 44  1  0  0  0
 43 73  1  0  0  0
 44 45  1  0  0  0
 44 80  1  0  0  0
 45 46  1  0  0  0
 45 79  1  0  0  0
 46 47  1  0  0  0
 46 74  1  0  0  0
 47 73  1  0  0  0
 48 74  1  0  0  0
 48 49  1  0  0  0
 48 75  1  0  0  0
 49 50  1  0  0  0
 49 78  1  0  0  0
 50 51  1  0  0  0
 50 77  1  0  0  0
 51 52  1  0  0  0
 51 76  1  0  0  0
 52 75  1  0  0  0
 28 29  2  0  0  0
 33 34  2  0  0  0
 38 39  2  0  0  0
M  END
> <rmsd>
0.615084648

$$$$
MolPort-005-945-097 MCULE-6138495956 PubChem-45359827


 84 90  0  0  0  0  0  0  0  0999 V2000
   -5.9358   13.6636   41.8247 C   0  0  0  0  0
   -5.0866   14.9295   41.7310 C   0  0  0  0  0
   -4.0774   14.9429   40.5514 C   0  0  0  0  0
   -2.8090   15.7175   40.9252 C   0  0  0  0  0
   -2.2330   15.2571   42.2713 C   0  0  0  0  0
   -3.3132   14.6214   43.1581 C   0  0  0  0  0
   -2.6285   13.3699   44.8650 C   0  0  0  0  0
   -1.2640   13.3370   45.5547 C   0  0  0  0  0
   -2.1336   13.5033   47.6830 C   0  0  0  0  0
   -3.5897   13.4899   47.1875 C   0  0  0  0  0
   -3.6796   12.8050   45.8253 C   0  0  0  0  0
   -1.1673   12.3305   49.3212 C   0  0  0  0  0
   -1.4556   11.0529   50.1241 C   0  0  0  0  0
    0.5751   10.0758   49.6705 C   0  0  0  0  0
    1.0694   11.2907   48.8623 C   0  0  0  0  0
    0.3449   12.5744   49.2736 C   0  0  0  0  0
    1.9834    9.2188   51.2002 C   0  0  0  0  0
    1.4725    7.9452   51.9035 C   0  0  0  0  0
    3.3495    7.5999   53.1094 C   0  0  0  0  0
    4.0795    8.8340   52.5747 C   0  0  0  0  0
    3.0655    9.8624   52.0742 C   0  0  0  0  0
    3.7160    5.9393   54.5633 C   0  0  0  0  0
    4.2618    6.4633   55.9014 C   0  0  0  0  0
    4.0867    5.4476   57.0581 C   0  0  0  0  0
    4.8414    3.8998   55.5080 C   0  0  0  0  0
    4.0025    4.4502   54.3511 C   0  0  0  0  0
    6.3265    2.5754   54.5194 C   0  0  0  0  0
    7.5617    2.4837   55.3648 C   0  0  0  0  0
    8.3699    3.5313   55.5751 C   0  0  0  0  0
    8.0258    4.9011   55.0674 C   0  0  0  0  0
    9.6016    3.3390   56.3994 C   0  0  0  0  0
   10.8131    3.8942   55.6671 C   0  0  0  0  0
   12.0702    3.5560   56.4008 C   0  0  0  0  0
   13.0937    2.9199   55.8162 C   0  0  0  0  0
   13.0462    2.5093   54.3770 C   0  0  0  0  0
   14.3237    2.6419   56.6115 C   0  0  0  0  0
   14.4855    1.1517   56.8346 C   0  0  0  0  0
   15.8101    0.8874   57.4737 C   0  0  0  0  0
   16.7450    0.1128   56.9135 C   0  0  0  0  0
   18.0399   -0.0861   57.6172 C   0  0  0  0  0
   16.5323   -0.5583   55.5962 C   0  0  0  0  0
    5.0445    5.7350   58.2091 C   0  0  0  0  0
    4.0722    6.6295   60.0830 C   0  0  0  0  0
    2.6528    6.0538   59.8806 C   0  0  0  0  0
    2.4057    4.8169   60.7513 C   0  0  0  0  0
    3.0008    4.9640   62.1624 C   0  0  0  0  0
    4.2690    5.8240   62.1731 C   0  0  0  0  0
    1.6134    4.4601   63.8260 C   0  0  0  0  0
    0.0772    4.2560   63.7423 C   0  0  0  0  0
   -0.4965    3.9838   65.1336 C   0  0  0  0  0
   -0.0560    5.0525   66.1403 C   0  0  0  0  0
    1.3471    5.5765   65.8125 C   0  0  0  0  0
    0.4028    7.2505   51.0816 C   0  0  0  0  0
   -2.9482   10.8090   50.2493 C   0  0  0  0  0
   -4.5389   15.2912   42.9882 O   0  0  0  0  0
   -2.9323   14.6870   44.5003 O   0  0  0  0  0
   -1.2756   14.1128   46.7357 O   0  0  0  0  0
   -4.9625   12.9492   45.2919 O   0  0  0  0  0
   -4.4105   12.8406   48.1114 O   0  0  0  0  0
   -1.6791   12.2166   48.0206 O   0  0  0  0  0
   -0.8278    9.9294   49.5399 O   0  0  0  0  0
    0.7939   13.0213   50.5193 O   0  0  0  0  0
    2.4553   11.4377   48.9522 O   0  0  0  0  0
    0.9430   10.1422   51.0290 O   0  0  0  0  0
    2.5423    7.0523   52.0955 O   0  0  0  0  0
    3.7272   10.8615   51.3572 O   0  0  0  0  0
    4.8563    9.3975   53.5873 O   0  0  0  0  0
    4.2976    6.6527   53.5107 O   0  0  0  0  0
    4.1412    4.0682   56.7141 O   0  0  0  0  0
    2.7968    3.7532   54.2466 O   0  0  0  0  0
    5.1746    2.5545   55.3151 O   0  0  0  0  0
    4.7019    6.9355   58.8565 O   0  0  0  0  0
    4.8855    5.8255   60.9118 O   0  0  0  0  0
    2.0539    5.5216   63.0242 O   0  0  0  0  0
    2.1024    4.5898   65.1506 O   0  0  0  0  0
   -0.0694    4.5103   67.4244 O   0  0  0  0  0
   -1.8900    3.9084   65.0865 O   0  0  0  0  0
   -0.5467    5.3724   63.1747 O   0  0  0  0  0
    2.9573    3.6967   60.1296 O   0  0  0  0  0
    1.7036    7.0347   60.1709 O   0  0  0  0  0
    3.6417    7.6689   56.2291 O   0  0  0  0  0
   -1.2127   14.3306   42.0475 O   0  0  0  0  0
   -3.0906   17.0852   40.9808 O   0  0  0  0  0
   -3.7278   13.6435   40.1609 O   0  0  0  0  0
  2  1  1  0  0  0
  2  3  1  0  0  0
  2 55  1  0  0  0
  3  4  1  0  0  0
  3 84  1  0  0  0
  4  5  1  0  0  0
  4 83  1  0  0  0
  5  6  1  0  0  0
  5 82  1  0  0  0
  6 55  1  0  0  0
  6 56  1  0  0  0
  7 56  1  0  0  0
  7  8  1  0  0  0
  8 57  1  0  0  0
  9 57  1  0  0  0
  9 10  1  0  0  0
  9 60  1  0  0  0
 10 11  1  0  0  0
 10 59  1  0  0  0
 11 58  1  0  0  0
 11  7  1  0  0  0
 12 60  1  0  0  0
 12 13  1  0  0  0
 13 61  1  0  0  0
 13 54  1  0  0  0
 14 61  1  0  0  0
 14 15  1  0  0  0
 14 64  1  0  0  0
 15 16  1  0  0  0
 15 63  1  0  0  0
 16 62  1  0  0  0
 16 12  1  0  0  0
 17 64  1  0  0  0
 17 18  1  0  0  0
 18 65  1  0  0  0
 18 53  1  0  0  0
 19 65  1  0  0  0
 19 20  1  0  0  0
 19 68  1  0  0  0
 20 21  1  0  0  0
 20 67  1  0  0  0
 21 66  1  0  0  0
 21 17  1  0  0  0
 22 68  1  0  0  0
 22 23  1  0  0  0
 23 24  1  0  0  0
 23 81  1  0  0  0
 24 69  1  0  0  0
 24 42  1  0  0  0
 25 69  1  0  0  0
 25 26  1  0  0  0
 25 71  1  0  0  0
 26 70  1  0  0  0
 26 22  1  0  0  0
 27 71  1  0  0  0
 27 28  1  0  0  0
 30 29  1  0  0  0
 31 29  1  0  0  0
 31 32  1  0  0  0
 32 33  1  0  0  0
 35 34  1  0  0  0
 36 34  1  0  0  0
 36 37  1  0  0  0
 37 38  1  0  0  0
 40 39  1  0  0  0
 41 39  1  0  0  0
 42 72  1  0  0  0
 43 72  1  0  0  0
 43 44  1  0  0  0
 43 73  1  0  0  0
 44 45  1  0  0  0
 44 80  1  0  0  0
 45 46  1  0  0  0
 45 79  1  0  0  0
 46 47  1  0  0  0
 46 74  1  0  0  0
 47 73  1  0  0  0
 48 74  1  0  0  0
 48 49  1  0  0  0
 48 75  1  0  0  0
 49 50  1  0  0  0
 49 78  1  0  0  0
 50 51  1  0  0  0
 50 77  1  0  0  0
 51 52  1  0  0  0
 51 76  1  0  0  0
 52 75  1  0  0  0
 28 29  2  0  0  0
 33 34  2  0  0  0
 38 39  2  0  0  0
M  END
> <rmsd>
0.873028755

$$$$
MolPort-002-772-558 MCULE-5944011773 PubChem-19615938


 44 49  0  0  0  0  0  0  0  0999 V2000
   -2.6319   11.6386   50.8214 C   0  0  0  0  0
   -0.4027   10.9637   49.9777 C   0  0  0  0  0
   -0.6131    9.6203   50.3327 C   0  0  0  0  0
    0.3703    8.6607   50.0846 C   0  0  0  0  0
    1.5780    9.0334   49.4795 C   0  0  0  0  0
    1.7929   10.3676   49.1250 C   0  0  0  0  0
    0.8129   11.3340   49.3758 C   0  0  0  0  0
    1.0622   12.7476   48.9609 C   0  0  0  0  0
   -0.4237   13.2955   47.0464 C   0  0  0  0  0
   -0.2708   13.2763   45.6755 C   0  0  0  0  0
    1.0198   12.8692   45.3973 C   0  0  0  0  0
    2.6390    8.0221   49.1941 C   0  0  0  0  0
    4.1111    6.3569   50.1701 C   0  0  0  0  0
    3.6867    5.3035   49.1166 C   0  0  0  0  0
    4.6340    5.3923   47.9111 C   0  0  0  0  0
    4.5469    6.7610   47.2067 C   0  0  0  0  0
    3.0919    7.1528   46.8793 C   0  0  0  0  0
    2.1706    7.0277   48.1021 C   0  0  0  0  0
    2.3216    5.6364   48.6163 C   0  0  0  0  0
    4.5318    5.6943   51.4408 C   0  0  0  0  0
    5.8588    5.8000   51.8619 C   0  0  0  0  0
    6.2683    5.1900   53.0500 C   0  0  0  0  0
    5.3523    4.4681   53.8334 C   0  0  0  0  0
    7.0749    3.9357   55.5307 C   0  0  0  0  0
    4.0150    4.3653   53.4082 C   0  0  0  0  0
    2.9983    3.6328   54.2223 C   0  0  0  0  0
    2.9088    4.2438   56.6266 C   0  0  0  0  0
    2.3037    5.2554   57.3419 C   0  0  0  0  0
    1.6107    6.0509   56.4491 C   0  0  0  0  0
    3.6113    4.9798   52.2192 C   0  0  0  0  0
   -1.3813   11.9363   50.2144 O   0  0  0  0  0
   -0.9848   13.5332   43.3650 O   0  0  0  0  0
   -2.4080   13.9690   45.0756 O   0  0  0  0  0
    1.3929    4.8462   48.6603 O   0  0  0  0  0
    5.7488    3.8535   55.0270 O   0  0  0  0  0
    1.7754    6.5389   59.3390 O   0  0  0  0  0
    3.0335    4.6574   59.4669 O   0  0  0  0  0
    0.7645   12.9141   47.5474 N   0  0  0  0  0
    1.6288   12.6509   46.5792 N   0  0  0  0  0
   -1.2706   13.6090   44.7088 N   0  0  0  0  0
    3.0654    7.3610   50.4413 N   0  0  0  0  0
    2.5651    4.4520   55.3437 N   0  0  0  0  0
    1.7955    5.5235   55.2231 N   0  0  0  0  0
    2.3852    5.4528   58.7558 N   0  0  0  0  0
  1 31  1  0  0  0
  2 31  1  0  0  0
  3  4  1  0  0  0
  5  6  1  0  0  0
  7  2  1  0  0  0
  8  7  1  0  0  0
  8 38  1  0  0  0
 10 11  1  0  0  0
 10 40  1  0  0  0
 12  5  1  0  0  0
 12 41  1  0  0  0
 13 41  1  0  0  0
 13 14  1  0  0  0
 13 20  1  0  0  0
 14 15  1  0  0  0
 14 19  1  0  0  0
 15 16  1  0  0  0
 16 17  1  0  0  0
 18 17  1  0  0  0
 18 19  1  0  0  0
 18 12  1  0  0  0
 21 22  1  0  0  0
 23 35  1  0  0  0
 23 25  1  0  0  0
 24 35  1  0  0  0
 26 25  1  0  0  0
 26 42  1  0  0  0
 28 29  1  0  0  0
 28 44  1  0  0  0
 30 20  1  0  0  0
 38  9  1  0  0  0
 38 39  1  0  0  0
 40 32  1  0  0  0
 42 27  1  0  0  0
 42 43  1  0  0  0
 44 36  1  0  0  0
  2  3  2  0  0  0
  4  5  2  0  0  0
  6  7  2  0  0  0
  9 10  2  0  0  0
 11 39  2  0  0  0
 19 34  2  0  0  0
 20 21  2  0  0  0
 22 23  2  0  0  0
 25 30  2  0  0  0
 27 28  2  0  0  0
 29 43  2  0  0  0
 40 33  2  0  0  0
 44 37  2  0  0  0
M  CHG  4  40   1  32  -1  44   1  36  -1
M  END
> <rmsd>
0.792380333

$$$$
MolPort-019-992-019 CHEMBL2133738 PubChem-11980055 PubChem-47725 PubChem-73161250 PubChem-73162142


 91 96  0  0  0  0  0  0  0  0999 V2000
   -0.6997    6.7677   56.6530 C   0  0  0  0  0
   -0.1281    5.3784   56.8298 C   0  0  0  0  0
   -1.0465    4.3661   56.1647 C   0  0  0  0  0
    1.2573    5.3288   56.2028 C   0  0  0  0  0
    2.0214    4.0919   56.6681 C   0  0  0  0  0
    3.0368    3.3943   54.4462 C   0  0  0  0  0
    4.2556    3.1536   53.6033 C   0  0  0  0  0
    5.5355    2.9035   54.3974 C   0  0  0  0  0
    7.2355    3.8666   55.6375 C   0  0  0  0  0
    7.5941    5.0992   56.4406 C   0  0  0  0  0
    7.3029    2.6712   56.5865 C   0  0  0  0  0
    8.2770    3.7217   54.5289 C   0  0  0  0  0
    4.5439    5.5865   52.7775 C   0  0  0  0  0
    4.9844    6.4753   51.6565 C   0  0  0  0  0
    6.4335    6.2033   51.2540 C   0  0  0  0  0
    7.0852    7.3289   50.4956 C   0  0  0  0  0
    6.4117    8.5264   50.1822 C   0  0  0  0  0
    7.0682    9.5501   49.4940 C   0  0  0  0  0
    8.4014    9.3883   49.1117 C   0  0  0  0  0
    9.0769    8.2025   49.4200 C   0  0  0  0  0
    8.4216    7.1753   50.1099 C   0  0  0  0  0
    3.8701    5.3098   49.6382 C   0  0  0  0  0
    2.9861    5.4477   48.4422 C   0  0  0  0  0
    1.5661    5.8011   48.8446 C   0  0  0  0  0
    4.3706    6.1497   46.4539 C   0  0  0  0  0
    4.8605    7.2249   45.5404 C   0  0  0  0  0
    5.4737    8.3956   46.3078 C   0  0  0  0  0
    6.1742    9.3363   45.3835 C   0  0  0  0  0
    5.8245   10.6582   45.1366 C   0  0  0  0  0
    7.5793   10.2427   43.9601 C   0  0  0  0  0
    8.6790   10.3500   43.1091 C   0  0  0  0  0
    9.5011    9.2159   42.9654 C   0  0  0  0  0
    9.2025    8.0184   43.6568 C   0  0  0  0  0
    8.0832    7.9398   44.5079 C   0  0  0  0  0
    7.2976    9.0834   44.6317 C   0  0  0  0  0
    2.6219    8.3759   45.0072 C   0  0  0  0  0
    1.5764    8.6550   43.9780 C   0  0  0  0  0
    0.2703    7.9730   44.3731 C   0  0  0  0  0
   -0.6958    7.9547   43.2341 C   0  0  0  0  0
   -1.1487    6.8266   42.5912 C   0  0  0  0  0
   -2.0437    8.5766   41.7263 C   0  0  0  0  0
    2.2999   10.9356   43.1567 C   0  0  0  0  0
    2.0083   12.3922   43.0046 C   0  0  0  0  0
    1.9722   13.0847   44.3765 C   0  0  0  0  0
    0.5916   13.7216   44.5316 C   0  0  0  0  0
   -0.0985   13.3378   43.2889 C   0  0  0  0  0
    2.4934    4.2713   58.0746 C   0  0  0  0  0
    3.9874    5.5380   59.7187 C   0  0  0  0  0
    4.5721    4.3304   60.4355 C   0  0  0  0  0
    5.9449    4.0142   59.8610 C   0  0  0  0  0
    6.3796    2.6083   60.2217 C   0  0  0  0  0
    6.1046    1.6161   62.4103 C   0  0  0  0  0
    2.9154    6.3430   60.4207 C   0  0  0  0  0
    1.4847    7.0010   62.3768 C   0  0  0  0  0
    1.3332    6.5351   63.8156 C   0  0  0  0  0
    2.4603    5.5358   64.0434 C   0  0  0  0  0
    2.8559    5.0334   62.6620 C   0  0  0  0  0
    2.1757    3.7201   62.4079 C   0  0  0  0  0
    0.1896    1.4224   63.0002 C   0  0  0  0  0
    3.1638    3.8622   55.7950 N   0  0  0  0  0
    4.4387    4.1719   52.5734 N   0  0  0  0  0
    4.0861    6.4298   50.4990 N   0  0  0  0  0
    3.5133    6.4693   47.5544 N   0  0  0  0  0
    6.6952   11.2135   44.2550 N   0  0  0  0  0
    3.8041    7.6620   44.6282 N   0  0  0  0  0
   -2.0008    7.2320   41.6339 N   0  0  0  0  0
   -1.2561    9.0539   42.7081 N   0  0  0  0  0
    1.3746   10.0880   43.8432 N   0  0  0  0  0
    0.6986   12.5811   42.4082 N   0  0  0  0  0
    3.5589    5.1858   58.3656 N   0  0  0  0  0
    6.6564    2.5104   61.6454 N   0  0  0  0  0
    5.2035    0.6403   61.8789 N   0  0  0  0  0
    6.4118    1.5996   63.7988 N   0  0  0  0  0
    2.3838    6.0572   61.7340 N   0  0  0  0  0
    0.7808    3.6804   62.0717 N   0  0  0  0  0
    0.0002    2.5070   62.0803 N   0  0  0  0  0
   -0.3954    0.1603   62.7281 N   0  0  0  0  0
    1.8954    3.1867   53.9523 O   0  0  0  0  0
    5.9373    4.0557   55.1100 O   0  0  0  0  0
    4.3042    6.0958   53.9022 O   0  0  0  0  0
    9.0494   10.3956   48.4122 O   0  0  0  0  0
    4.4309    4.2098   49.8587 O   0  0  0  0  0
    0.9462    4.6953   49.4325 O   0  0  0  0  0
    4.7042    4.9553   46.2303 O   0  0  0  0  0
    2.4555    8.7617   46.1969 O   0  0  0  0  0
    3.3641   10.4686   42.6717 O   0  0  0  0  0
   -1.2927   13.6412   43.0237 O   0  0  0  0  0
    1.9250    3.6335   58.9979 O   0  0  0  0  0
    2.4735    7.3490   59.7984 O   0  0  0  0  0
    2.8493    2.6603   62.4678 O   0  0  0  0  0
    0.8623    1.5837   64.0533 O   0  0  0  0  0
  1  2  1  0  0  0
  2  3  1  0  0  0
  2  4  1  0  0  0
  5  4  1  0  0  0
  5 60  1  0  0  0
  5 47  1  0  0  0
  7  6  1  0  0  0
  7  8  1  0  0  0
  7 61  1  0  0  0
  8 79  1  0  0  0
  9 79  1  0  0  0
  9 10  1  0  0  0
  9 11  1  0  0  0
  9 12  1  0  0  0
 14 13  1  0  0  0
 14 15  1  0  0  0
 14 62  1  0  0  0
 15 16  1  0  0  0
 17 18  1  0  0  0
 19 81  1  0  0  0
 19 20  1  0  0  0
 21 16  1  0  0  0
 23 22  1  0  0  0
 23 24  1  0  0  0
 23 63  1  0  0  0
 24 83  1  0  0  0
 26 25  1  0  0  0
 26 27  1  0  0  0
 26 65  1  0  0  0
 27 28  1  0  0  0
 29 64  1  0  0  0
 31 32  1  0  0  0
 33 34  1  0  0  0
 35 28  1  0  0  0
 35 30  1  0  0  0
 37 36  1  0  0  0
 37 38  1  0  0  0
 37 68  1  0  0  0
 38 39  1  0  0  0
 40 66  1  0  0  0
 41 67  1  0  0  0
 43 42  1  0  0  0
 43 44  1  0  0  0
 43 69  1  0  0  0
 44 45  1  0  0  0
 45 46  1  0  0  0
 46 69  1  0  0  0
 47 70  1  0  0  0
 48 70  1  0  0  0
 48 49  1  0  0  0
 48 53  1  0  0  0
 49 50  1  0  0  0
 50 51  1  0  0  0
 51 71  1  0  0  0
 52 72  1  0  0  0
 52 73  1  0  0  0
 53 74  1  0  0  0
 54 74  1  0  0  0
 54 55  1  0  0  0
 55 56  1  0  0  0
 56 57  1  0  0  0
 57 58  1  0  0  0
 57 74  1  0  0  0
 58 75  1  0  0  0
 59 77  1  0  0  0
 60  6  1  0  0  0
 61 13  1  0  0  0
 62 22  1  0  0  0
 63 25  1  0  0  0
 64 30  1  0  0  0
 65 36  1  0  0  0
 67 39  1  0  0  0
 68 42  1  0  0  0
 75 76  1  0  0  0
 76 59  1  0  0  0
  6 78  2  0  0  0
 13 80  2  0  0  0
 16 17  2  0  0  0
 18 19  2  0  0  0
 20 21  2  0  0  0
 22 82  2  0  0  0
 25 84  2  0  0  0
 28 29  2  0  0  0
 30 31  2  0  0  0
 32 33  2  0  0  0
 34 35  2  0  0  0
 36 85  2  0  0  0
 39 40  2  0  0  0
 41 66  2  0  0  0
 42 86  2  0  0  0
 46 87  2  0  0  0
 47 88  2  0  0  0
 52 71  2  0  0  0
 53 89  2  0  0  0
 58 90  2  0  0  0
 59 91  2  0  0  0
M  END
> <rmsd>
0.63354522

$$$$
MolPort-002-690-797 169683646 ChemDiv-8004-3419 MCULE-4254779698 PubChem-4914119 ZINC000169683646


 47 50  0  0  0  0  0  0  0  0999 V2000
    8.3452    4.3784   56.3835 C   0  0  0  0  0
    5.9190    4.3575   56.9378 C   0  0  0  0  0
    5.0891    3.3118   57.4089 C   0  0  0  0  0
    4.0313    3.6257   58.2772 C   0  0  0  0  0
    3.7970    4.9436   58.6928 C   0  0  0  0  0
    4.6359    5.9635   58.2330 C   0  0  0  0  0
    5.6855    5.6725   57.3618 C   0  0  0  0  0
    6.3114    5.4873   53.5799 C   0  0  0  0  0
    5.4898    5.5946   52.4542 C   0  0  0  0  0
    5.2665    6.8424   51.8671 C   0  0  0  0  0
    5.8677    7.9967   52.3957 C   0  0  0  0  0
    5.0843    9.5740   50.6065 C   0  0  0  0  0
    4.9561    8.6173   49.5862 C   0  0  0  0  0
    4.3949    8.9653   48.3548 C   0  0  0  0  0
    3.9599   10.2750   48.1288 C   0  0  0  0  0
    4.0915   11.2342   49.1372 C   0  0  0  0  0
    4.6552   10.8846   50.3678 C   0  0  0  0  0
    0.8361    9.7266   47.5216 C   0  0  0  0  0
    0.7248   11.6957   45.9914 C   0  0  0  0  0
   -0.2821   12.5005   46.5772 C   0  0  0  0  0
   -1.0846   13.2996   45.7480 C   0  0  0  0  0
   -0.8916   13.3294   44.3605 C   0  0  0  0  0
    0.1256   12.5532   43.7968 C   0  0  0  0  0
    0.9224   11.7414   44.6044 C   0  0  0  0  0
    6.6854    7.8806   53.5254 C   0  0  0  0  0
    6.9099    6.6328   54.1139 C   0  0  0  0  0
    6.9685    4.1152   55.9970 N   0  0  0  0  0
    2.7183    5.2451   59.5884 N   0  0  0  0  0
    5.3123    1.9365   57.0469 N   0  0  0  0  0
    1.5041   10.7809   46.7733 N   0  0  0  0  0
   -1.7177   14.1536   43.5269 N   0  0  0  0  0
   -0.4710   12.5610   48.0014 N   0  0  0  0  0
    2.4869    6.5420   59.9865 O   0  0  0  0  0
    1.9750    4.3365   60.0139 O   0  0  0  0  0
    6.5443    1.5095   56.6083 O   0  0  0  0  0
    4.4203    1.0856   57.2453 O   0  0  0  0  0
    7.7323    3.2331   53.6189 O   0  0  0  0  0
    5.3559    3.0736   54.1788 O   0  0  0  0  0
    5.6542    9.2751   51.8547 O   0  0  0  0  0
    3.5821    9.6937   45.5458 O   0  0  0  0  0
    3.7542   12.0528   46.1714 O   0  0  0  0  0
   -1.5163   14.1877   42.1664 O   0  0  0  0  0
   -2.6252   14.8512   44.0252 O   0  0  0  0  0
    0.5926   12.3786   48.8558 O   0  0  0  0  0
   -1.5554   12.9650   48.4710 O   0  0  0  0  0
    6.5911    3.9195   54.3154 S   0  0  0  0  0
    3.2272   10.7100   46.5946 S   0  0  0  0  0
  1 27  1  0  0  0
  3  4  1  0  0  0
  3 29  1  0  0  0
  5  6  1  0  0  0
  5 28  1  0  0  0
  7  2  1  0  0  0
  9 10  1  0  0  0
 11 39  1  0  0  0
 11 25  1  0  0  0
 12 39  1  0  0  0
 13 14  1  0  0  0
 15 16  1  0  0  0
 17 12  1  0  0  0
 18 30  1  0  0  0
 20 21  1  0  0  0
 20 32  1  0  0  0
 22 23  1  0  0  0
 22 31  1  0  0  0
 24 19  1  0  0  0
 26  8  1  0  0  0
 27  2  1  0  0  0
 28 33  1  0  0  0
 29 35  1  0  0  0
 30 19  1  0  0  0
 31 42  1  0  0  0
 32 44  1  0  0  0
 46 27  1  0  0  0
 46  8  1  0  0  0
 47 15  1  0  0  0
 47 30  1  0  0  0
  2  3  2  0  0  0
  4  5  2  0  0  0
  6  7  2  0  0  0
  8  9  2  0  0  0
 10 11  2  0  0  0
 12 13  2  0  0  0
 14 15  2  0  0  0
 16 17  2  0  0  0
 19 20  2  0  0  0
 21 22  2  0  0  0
 23 24  2  0  0  0
 25 26  2  0  0  0
 28 34  2  0  0  0
 29 36  2  0  0  0
 31 43  2  0  0  0
 32 45  2  0  0  0
 46 37  2  0  0  0
 46 38  2  0  0  0
 47 40  2  0  0  0
 47 41  2  0  0  0
M  CHG  8  28   1  33  -1  29   1  35  -1  31   1  42  -1  32   1  44  -1
M  END
> <rmsd>
0.852396548

$$$$
MolPort-006-167-469 MolPort-039-140-385 CHEMBL1252 LN01275396 MCULE-1841312036 MCULE-2381408540 MCULE-2939563706 MCULE-5121474339 PubChem-16131215 PubChem-16141059 PubChem-87140386 PubChem-87221374 PubChem-87640692


101106  0  0  0  0  0  0  0  0999 V2000
    1.4299   15.7655   39.7773 C   0  0  0  0  0
    0.9146   14.3763   39.8408 C   0  0  0  0  0
   -0.9527   12.7369   39.3631 C   0  0  0  0  0
   -2.1225   12.6524   38.3832 C   0  0  0  0  0
   -2.6446   11.2541   38.2810 C   0  0  0  0  0
   -1.9259   10.2668   37.5936 C   0  0  0  0  0
   -2.4284    8.9628   37.5050 C   0  0  0  0  0
   -3.6525    8.6485   38.1061 C   0  0  0  0  0
   -4.1680    7.3536   38.0194 C   0  0  0  0  0
   -5.3926    7.0443   38.6254 C   0  0  0  0  0
   -6.1109    8.0306   39.3154 C   0  0  0  0  0
   -5.6044    9.3285   39.4122 C   0  0  0  0  0
   -4.3762    9.6434   38.8117 C   0  0  0  0  0
   -3.8730   10.9428   38.8836 C   0  0  0  0  0
   -1.4123   12.4156   40.7487 C   0  0  0  0  0
   -3.1401   12.7517   42.5666 C   0  0  0  0  0
   -4.4432   13.5314   42.7655 C   0  0  0  0  0
   -4.2323   14.9432   43.2289 C   0  0  0  0  0
   -4.6446   15.2996   44.5175 C   0  0  0  0  0
   -4.4586   16.6044   44.9852 C   0  0  0  0  0
   -3.8624   17.5599   44.1638 C   0  0  0  0  0
   -3.4587   17.2141   42.8720 C   0  0  0  0  0
   -3.6409   15.9081   42.4017 C   0  0  0  0  0
   -2.2636   12.8096   43.7919 C   0  0  0  0  0
   -2.0005   12.2145   46.2651 C   0  0  0  0  0
   -1.7445   13.6467   46.7404 C   0  0  0  0  0
   -2.8883   14.2834   47.4723 C   0  0  0  0  0
   -2.7589   15.6118   47.8927 C   0  0  0  0  0
   -3.7925   16.2200   48.6060 C   0  0  0  0  0
   -4.9505   15.4920   48.8888 C   0  0  0  0  0
   -4.0662   13.5910   47.7754 C   0  0  0  0  0
   -0.7389   11.4074   46.1649 C   0  0  0  0  0
    1.5464   10.8832   47.1121 C   0  0  0  0  0
    2.6762   11.3344   46.1920 C   0  0  0  0  0
    1.9430   10.8646   48.5662 C   0  0  0  0  0
   -0.1499    9.6280   49.1683 C   0  0  0  0  0
    1.1021   10.9660   50.9277 C   0  0  0  0  0
    0.1551   12.1541   51.0891 C   0  0  0  0  0
    0.7723   13.3964   50.5429 C   0  0  0  0  0
    0.2208   13.9984   49.4052 C   0  0  0  0  0
    0.7951   15.1574   48.8755 C   0  0  0  0  0
    1.9235   15.7164   49.4860 C   0  0  0  0  0
    2.4701   15.1239   50.6250 C   0  0  0  0  0
    1.8937   13.9663   51.1580 C   0  0  0  0  0
    0.8637    9.9518   52.0044 C   0  0  0  0  0
    1.5184    9.2299   54.3375 C   0  0  0  0  0
    0.5747   10.1611   55.1072 C   0  0  0  0  0
    1.1068   11.5427   55.3639 C   0  0  0  0  0
    2.7543    8.9245   55.1333 C   0  0  0  0  0
    3.7446    8.1375   57.3262 C   0  0  0  0  0
    3.9955    9.4322   58.0886 C   0  0  0  0  0
    5.4676    9.5472   58.4550 C   0  0  0  0  0
    6.2207   10.2314   57.3275 C   0  0  0  0  0
    5.5854   10.3612   59.7224 C   0  0  0  0  0
    3.4392    7.0294   58.2758 C   0  0  0  0  0
    4.1502    4.7441   59.2005 C   0  0  0  0  0
    3.8881    5.0701   60.6647 C   0  0  0  0  0
    5.1150    5.7203   61.2877 C   0  0  0  0  0
    4.8152    6.1441   62.7118 C   0  0  0  0  0
    4.1797    7.5266   62.7430 C   0  0  0  0  0
    2.2119    8.7800   62.6018 C   0  0  0  0  0
    1.7337    9.3162   61.2653 C   0  0  0  0  0
    1.0476    8.7252   63.5744 C   0  0  0  0  0
    3.0850    3.8806   58.5966 C   0  0  0  0  0
    2.4433    1.8259   57.2607 C   0  0  0  0  0
    3.2197    0.7507   56.5173 C   0  0  0  0  0
    4.6994    0.9690   56.8337 C   0  0  0  0  0
    4.8056    2.2721   57.6005 C   0  0  0  0  0
    5.5537    3.2858   56.7911 C   0  0  0  0  0
    7.5215    4.8702   56.6058 C   0  0  0  0  0
    8.4341    4.2013   55.5940 C   0  0  0  0  0
    8.3220    5.6692   57.5794 C   0  0  0  0  0
    1.6394   13.4669   40.3284 O   0  0  0  0  0
   -0.9229   11.4203   41.3424 O   0  0  0  0  0
   -1.1480   13.4018   43.7670 O   0  0  0  0  0
   -0.7222   10.3575   45.4734 O   0  0  0  0  0
    2.2762   11.2317   44.8597 O   0  0  0  0  0
    3.0703   11.3138   48.9173 O   0  0  0  0  0
    2.5059   16.8610   48.9616 O   0  0  0  0  0
   -0.2282    9.3188   52.0677 O   0  0  0  0  0
    2.2701   11.8795   55.0037 O   0  0  0  0  0
    3.8992    9.1983   54.6814 O   0  0  0  0  0
    2.3778    7.0534   58.9562 O   0  0  0  0  0
    1.8746    4.1939   58.7366 O   0  0  0  0  0
    5.1085    3.6686   55.6759 O   0  0  0  0  0
    8.2010    6.9199   57.6015 O   0  0  0  0  0
   -0.3827   14.0771   39.3226 N   0  0  0  0  0
   -2.4452   13.1921   41.3632 N   0  0  0  0  0
   -2.7338   12.2101   45.0005 N   0  0  0  0  0
   -5.0658   14.2037   48.4651 N   0  0  0  0  0
    0.3982   11.7641   46.9509 N   0  0  0  0  0
    1.0137   10.4138   49.5672 N   0  0  0  0  0
    1.8428    9.7888   53.0269 N   0  0  0  0  0
    0.2798   12.4893   56.0253 N   0  0  0  0  0
    2.6209    8.3162   56.4152 N   0  0  0  0  0
    4.3676    5.9499   58.4022 N   0  0  0  0  0
    2.7610    7.4448   62.4290 N   0  0  0  0  0
    3.4369    2.7029   57.8460 N   0  0  0  0  0
    6.7513    3.8594   57.3217 N   0  0  0  0  0
    9.2141    5.0247   58.4866 N   0  0  0  0  0
   -3.6221   19.1863   44.7546 Cl  0  0  0  0  0
  1  2  1  0  0  0
  2 87  1  0  0  0
  3 87  1  0  0  0
  3  4  1  0  0  0
  3 15  1  0  0  0
  4  5  1  0  0  0
  6  7  1  0  0  0
  8  9  1  0  0  0
 10 11  1  0  0  0
 12 13  1  0  0  0
 13  8  1  0  0  0
 14  5  1  0  0  0
 15 88  1  0  0  0
 16 88  1  0  0  0
 16 17  1  0  0  0
 16 24  1  0  0  0
 17 18  1  0  0  0
 19 20  1  0  0  0
 21101  1  0  0  0
 21 22  1  0  0  0
 23 18  1  0  0  0
 24 89  1  0  0  0
 25 89  1  0  0  0
 25 26  1  0  0  0
 25 32  1  0  0  0
 26 27  1  0  0  0
 28 29  1  0  0  0
 30 90  1  0  0  0
 31 27  1  0  0  0
 32 91  1  0  0  0
 33 91  1  0  0  0
 33 34  1  0  0  0
 33 35  1  0  0  0
 34 77  1  0  0  0
 35 92  1  0  0  0
 36 92  1  0  0  0
 37 92  1  0  0  0
 37 38  1  0  0  0
 37 45  1  0  0  0
 38 39  1  0  0  0
 40 41  1  0  0  0
 42 79  1  0  0  0
 42 43  1  0  0  0
 44 39  1  0  0  0
 45 93  1  0  0  0
 46 93  1  0  0  0
 46 47  1  0  0  0
 46 49  1  0  0  0
 47 48  1  0  0  0
 48 94  1  0  0  0
 49 95  1  0  0  0
 50 95  1  0  0  0
 50 51  1  0  0  0
 50 55  1  0  0  0
 51 52  1  0  0  0
 52 53  1  0  0  0
 52 54  1  0  0  0
 55 96  1  0  0  0
 56 96  1  0  0  0
 56 57  1  0  0  0
 56 64  1  0  0  0
 57 58  1  0  0  0
 58 59  1  0  0  0
 59 60  1  0  0  0
 60 97  1  0  0  0
 61 97  1  0  0  0
 61 62  1  0  0  0
 61 63  1  0  0  0
 64 98  1  0  0  0
 65 98  1  0  0  0
 65 66  1  0  0  0
 66 67  1  0  0  0
 67 68  1  0  0  0
 68 69  1  0  0  0
 68 98  1  0  0  0
 69 99  1  0  0  0
 70 99  1  0  0  0
 70 71  1  0  0  0
 70 72  1  0  0  0
 72100  1  0  0  0
  2 73  2  0  0  0
  5  6  2  0  0  0
  7  8  2  0  0  0
  9 10  2  0  0  0
 11 12  2  0  0  0
 13 14  2  0  0  0
 15 74  2  0  0  0
 18 19  2  0  0  0
 20 21  2  0  0  0
 22 23  2  0  0  0
 24 75  2  0  0  0
 27 28  2  0  0  0
 29 30  2  0  0  0
 31 90  2  0  0  0
 32 76  2  0  0  0
 35 78  2  0  0  0
 39 40  2  0  0  0
 41 42  2  0  0  0
 43 44  2  0  0  0
 45 80  2  0  0  0
 48 81  2  0  0  0
 49 82  2  0  0  0
 55 83  2  0  0  0
 64 84  2  0  0  0
 69 85  2  0  0  0
 72 86  2  0  0  0
M  END
> <rmsd>
0.864835382

$$$$
MolPort-047-605-464 PubChem-9543333


 57 59  0  0  0  0  0  0  0  0999 V2000
   -2.8612    9.6985   52.5584 C   0  0  0  0  0
   -1.5768   10.4481   52.8798 C   0  0  0  0  0
   -1.9277   11.6594   53.7316 C   0  0  0  0  0
   -0.6903    9.5130   53.6973 C   0  0  0  0  0
    2.1794    5.9768   57.1133 C   0  0  0  0  0
    2.9322    4.6900   57.3914 C   0  0  0  0  0
    3.6131    4.7648   58.7346 C   0  0  0  0  0
    4.8625    3.9369   58.5354 C   0  0  0  0  0
    4.8937    3.6854   57.0357 C   0  0  0  0  0
    7.3408    4.3889   57.0854 C   0  0  0  0  0
    7.8795    4.1543   55.0474 C   0  0  0  0  0
    6.5777    3.8197   55.1814 C   0  0  0  0  0
    6.3975    3.3638   52.9007 C   0  0  0  0  0
    8.4845    4.0945   53.8007 C   0  0  0  0  0
   -0.8500   10.8896   51.5902 C   0  0  0  0  0
   -1.6454   11.8356   50.7394 C   0  0  0  0  0
   -1.9695   14.1651   49.8293 C   0  0  0  0  0
   -1.6534   13.9786   48.3550 C   0  0  0  0  0
   -2.8049   14.4156   47.5242 C   0  0  0  0  0
   -3.7229   15.9402   45.7370 C   0  0  0  0  0
   -3.3314   15.5752   44.3136 C   0  0  0  0  0
   -1.5596   13.7604   43.7057 C   0  0  0  0  0
   -0.5606   13.6125   44.8036 C   0  0  0  0  0
    0.2654   14.8828   44.9411 C   0  0  0  0  0
    1.1828   14.7957   46.1445 C   0  0  0  0  0
    2.3470   13.8572   45.8609 C   0  0  0  0  0
    3.3090   13.8035   47.0045 C   0  0  0  0  0
    0.5214   10.1207   54.0392 O   0  0  0  0  0
    2.7605    9.4862   55.2023 O   0  0  0  0  0
    1.6549    7.6136   53.7754 O   0  0  0  0  0
    0.6028    8.4851   56.2799 O   0  0  0  0  0
   -0.8644    6.7016   55.0008 O   0  0  0  0  0
   -0.7290    6.4513   57.5879 O   0  0  0  0  0
    1.4124    5.8287   55.9575 O   0  0  0  0  0
    3.9195    4.4884   56.4176 O   0  0  0  0  0
    4.7922    2.7116   59.2045 O   0  0  0  0  0
    2.7786    4.2387   59.7290 O   0  0  0  0  0
    1.8788    4.9098   62.0931 O   0  0  0  0  0
    4.2573    5.8060   61.4779 O   0  0  0  0  0
    1.9678    6.8252   60.3185 O   0  0  0  0  0
   -2.6768   11.4342   50.1342 O   0  0  0  0  0
   -3.8852   13.7713   47.5684 O   0  0  0  0  0
   -1.1906   13.8601   42.5445 O   0  0  0  0  0
    4.3216   13.0616   46.9210 O   0  0  0  0  0
    3.1116   14.5680   48.1504 O   0  0  0  0  0
   -0.4530    9.7849   50.8299 O   0  0  0  0  0
    1.4098    8.9157   54.8356 P   0  0  0  0  0
    0.0878    6.8662   56.1640 P   0  0  0  0  0
    2.6991    5.4301   60.9338 P   0  0  0  0  0
    6.2103    3.9613   56.4593 N   0  0  0  0  0
    8.3970    4.5205   56.2335 N   0  0  0  0  0
    5.8112    3.4235   54.1352 N   0  0  0  0  0
    7.7203    3.6966   52.7402 N   0  0  0  0  0
    9.8558    4.4351   53.6238 N   0  0  0  0  0
   -1.2267   13.1970   50.6233 N   0  0  0  0  0
   -2.6716   15.5486   46.6668 N   0  0  0  0  0
   -3.3121   13.7658   44.0881 S   0  0  0  0  0
  1  2  1  0  0  0
  2  3  1  0  0  0
  2  4  1  0  0  0
  2 15  1  0  0  0
  4 28  1  0  0  0
  5 34  1  0  0  0
  6  5  1  0  0  0
  6  7  1  0  0  0
  6 35  1  0  0  0
  7  8  1  0  0  0
  7 37  1  0  0  0
  8  9  1  0  0  0
  8 36  1  0  0  0
  9 35  1  0  0  0
  9 50  1  0  0  0
 11 51  1  0  0  0
 12 52  1  0  0  0
 12 50  1  0  0  0
 13 53  1  0  0  0
 14 54  1  0  0  0
 14 11  1  0  0  0
 15 16  1  0  0  0
 15 46  1  0  0  0
 16 55  1  0  0  0
 17 55  1  0  0  0
 17 18  1  0  0  0
 18 19  1  0  0  0
 19 56  1  0  0  0
 20 56  1  0  0  0
 20 21  1  0  0  0
 21 57  1  0  0  0
 22 57  1  0  0  0
 23 22  1  0  0  0
 23 24  1  0  0  0
 24 25  1  0  0  0
 25 26  1  0  0  0
 26 27  1  0  0  0
 27 45  1  0  0  0
 47 28  1  0  0  0
 47 30  1  0  0  0
 47 31  1  0  0  0
 48 31  1  0  0  0
 48 33  1  0  0  0
 48 34  1  0  0  0
 49 37  1  0  0  0
 49 39  1  0  0  0
 49 40  1  0  0  0
 50 10  1  0  0  0
 10 51  2  0  0  0
 11 12  2  0  0  0
 13 52  2  0  0  0
 14 53  2  0  0  0
 16 41  2  0  0  0
 19 42  2  0  0  0
 22 43  2  0  0  0
 27 44  2  0  0  0
 47 29  2  0  0  0
 48 32  2  0  0  0
 49 38  2  0  0  0
M  END
> <rmsd>
0.656925857

$$$$
MolPort-023-274-343 PubChem-60208864


 76 84  0  0  0  0  0  0  0  0999 V2000
    6.4804   -1.8441   58.2680 C   0  0  0  0  0
    5.5163   -0.8409   58.8733 C   0  0  0  0  0
    4.6090    1.2209   58.6782 C   0  0  0  0  0
    5.6894    3.1222   57.9630 C   0  0  0  0  0
    6.4027    3.1445   56.6022 C   0  0  0  0  0
    7.4844    4.2513   56.5980 C   0  0  0  0  0
    8.1812    4.3525   55.2520 C   0  0  0  0  0
    5.7345    5.5883   57.4405 C   0  0  0  0  0
    4.3625    7.2821   57.0851 C   0  0  0  0  0
    3.0811    7.5279   57.8960 C   0  0  0  0  0
    1.6357    6.7450   56.2005 C   0  0  0  0  0
    1.4590    6.3810   53.9692 C   0  0  0  0  0
    0.3587    7.4112   53.6278 C   0  0  0  0  0
    0.4518    7.9671   52.2039 C   0  0  0  0  0
    1.8824    8.3652   51.8104 C   0  0  0  0  0
    2.3279    9.5150   52.7082 C   0  0  0  0  0
    2.8730    7.1754   52.0176 C   0  0  0  0  0
    3.6879    6.8014   50.7668 C   0  0  0  0  0
    4.3104    8.0467   50.1435 C   0  0  0  0  0
    3.2650    9.0930   49.6977 C   0  0  0  0  0
    3.7935   10.4506   50.1760 C   0  0  0  0  0
    1.8750    8.8203   50.3285 C   0  0  0  0  0
    0.8557    9.9116   49.9874 C   0  0  0  0  0
    0.9672   10.3725   48.5590 C   0  0  0  0  0
    1.9464   10.0096   47.7064 C   0  0  0  0  0
    1.9458   10.6192   46.3140 C   0  0  0  0  0
    0.5282   10.7499   45.7132 C   0  0  0  0  0
    0.0344    9.4857   45.0038 C   0  0  0  0  0
   -0.2471    8.3724   46.0018 C   0  0  0  0  0
   -1.2577    9.8173   44.2858 C   0  0  0  0  0
    1.0538    9.0303   43.9656 C   0  0  0  0  0
    2.4384    8.8200   44.5782 C   0  0  0  0  0
    2.9910   10.0618   45.2982 C   0  0  0  0  0
    4.3118    9.5895   45.9447 C   0  0  0  0  0
    4.3708    9.5928   47.4711 C   0  0  0  0  0
    3.0855    9.0943   48.1414 C   0  0  0  0  0
    2.7656    7.6783   47.6525 C   0  0  0  0  0
    3.2961   11.1544   44.2902 C   0  0  0  0  0
    2.4307   12.8023   42.6601 C   0  0  0  0  0
    0.9552   14.0375   43.8892 C   0  0  0  0  0
    0.0014   14.3825   42.7472 C   0  0  0  0  0
    0.5733   14.0098   41.3767 C   0  0  0  0  0
    1.4916   12.7861   41.4290 C   0  0  0  0  0
    2.2920    5.9360   52.7480 C   0  0  0  0  0
    1.4223    5.1028   51.8155 C   0  0  0  0  0
    3.4320    5.0411   53.2130 C   0  0  0  0  0
    1.8359    5.3369   56.8076 C   0  0  0  0  0
    1.1580    3.2441   55.5663 C   0  0  0  0  0
    0.0747    2.3986   55.0002 C   0  0  0  0  0
    1.7247    5.4187   58.3213 C   0  0  0  0  0
    2.7605    6.3901   58.8805 C   0  0  0  0  0
    5.4047    4.5283   58.4961 C   0  0  0  0  0
    4.6444    1.5240   60.1892 C   0  0  0  0  0
    4.6615    0.2034   60.9627 C   0  0  0  0  0
    5.7069   -0.7604   60.3947 C   0  0  0  0  0
    5.7073    0.4236   58.2856 O   0  0  0  0  0
    4.4901    2.3866   57.8862 O   0  0  0  0  0
    5.4820    3.3512   55.5694 O   0  0  0  0  0
    7.0937    5.5465   57.0563 O   0  0  0  0  0
    5.4108    6.8654   57.9109 O   0  0  0  0  0
    1.9720    7.8303   57.0649 O   0  0  0  0  0
    2.3066    6.8864   54.9745 O   0  0  0  0  0
    4.4524   11.6575   44.2089 O   0  0  0  0  0
    2.2781   11.6343   43.4666 O   0  0  0  0  0
    2.2903   13.9753   43.4408 O   0  0  0  0  0
   -1.2136   13.7249   42.9447 O   0  0  0  0  0
    1.2735   15.1003   40.8491 O   0  0  0  0  0
    0.7206   11.6174   41.3843 O   0  0  0  0  0
    2.3604    2.9043   55.4132 O   0  0  0  0  0
    1.9123    4.1587   58.8895 O   0  0  0  0  0
    2.2851    6.9340   60.0744 O   0  0  0  0  0
    6.1557    4.7524   59.6508 O   0  0  0  0  0
    3.5155    2.2609   60.5567 O   0  0  0  0  0
    4.9027    0.4409   62.3175 O   0  0  0  0  0
    6.9962   -0.3127   60.6988 O   0  0  0  0  0
    0.8237    4.4297   56.2833 N   0  0  0  0  0
  1  2  1  0  0  0
  2 56  1  0  0  0
  3 56  1  0  0  0
  3 57  1  0  0  0
  3 53  1  0  0  0
  4 57  1  0  0  0
  4  5  1  0  0  0
  5 58  1  0  0  0
  5  6  1  0  0  0
  6  7  1  0  0  0
  6 59  1  0  0  0
  8 59  1  0  0  0
  8 60  1  0  0  0
  8 52  1  0  0  0
  9 60  1  0  0  0
 10  9  1  0  0  0
 10 61  1  0  0  0
 11 61  1  0  0  0
 11 62  1  0  0  0
 11 47  1  0  0  0
 12 62  1  0  0  0
 12 13  1  0  0  0
 13 14  1  0  0  0
 14 15  1  0  0  0
 15 16  1  0  0  0
 15 17  1  0  0  0
 17 18  1  0  0  0
 17 44  1  0  0  0
 18 19  1  0  0  0
 19 20  1  0  0  0
 20 21  1  0  0  0
 20 22  1  0  0  0
 22 23  1  0  0  0
 22 15  1  0  0  0
 23 24  1  0  0  0
 26 25  1  0  0  0
 26 27  1  0  0  0
 27 28  1  0  0  0
 28 29  1  0  0  0
 28 30  1  0  0  0
 28 31  1  0  0  0
 31 32  1  0  0  0
 32 33  1  0  0  0
 33 34  1  0  0  0
 33 38  1  0  0  0
 33 26  1  0  0  0
 34 35  1  0  0  0
 35 36  1  0  0  0
 36 37  1  0  0  0
 36 25  1  0  0  0
 36 20  1  0  0  0
 38 64  1  0  0  0
 39 64  1  0  0  0
 39 65  1  0  0  0
 40 65  1  0  0  0
 40 41  1  0  0  0
 41 66  1  0  0  0
 41 42  1  0  0  0
 42 67  1  0  0  0
 42 43  1  0  0  0
 43 68  1  0  0  0
 43 39  1  0  0  0
 44 45  1  0  0  0
 44 46  1  0  0  0
 44 12  1  0  0  0
 47 76  1  0  0  0
 47 50  1  0  0  0
 49 48  1  0  0  0
 50 70  1  0  0  0
 50 51  1  0  0  0
 51 71  1  0  0  0
 51 10  1  0  0  0
 52 72  1  0  0  0
 52  4  1  0  0  0
 53 73  1  0  0  0
 53 54  1  0  0  0
 54 74  1  0  0  0
 54 55  1  0  0  0
 55 75  1  0  0  0
 55  2  1  0  0  0
 76 48  1  0  0  0
 24 25  2  0  0  0
 38 63  2  0  0  0
 48 69  2  0  0  0
M  END
> <rmsd>
0.551695943

$$$$
MolPort-046-417-410


 47 50  0  0  0  0  0  0  0  0999 V2000
    7.0248   12.8448   43.6048 C   0  0  0  0  0
    6.4513   13.6505   44.7554 C   0  0  0  0  0
    4.4843   12.7662   45.9394 C   0  0  0  0  0
    5.2787   12.2763   47.0837 C   0  0  0  0  0
    4.7254   11.6646   48.1222 C   0  0  0  0  0
    5.5583   11.2021   49.2253 C   0  0  0  0  0
    5.0046   10.5894   50.2596 C   0  0  0  0  0
    5.8362   10.1272   51.3642 C   0  0  0  0  0
    5.2817    9.5121   52.3961 C   0  0  0  0  0
    6.1142    9.0484   53.5057 C   0  0  0  0  0
    5.6179    8.4154   54.5757 C   0  0  0  0  0
    7.9019    7.8217   55.6182 C   0  0  0  0  0
    8.3015    6.6496   54.7328 C   0  0  0  0  0
    7.9061    5.3388   55.3828 C   0  0  0  0  0
    8.0362    4.2097   54.3804 C   0  0  0  0  0
    7.4535    2.9281   54.9535 C   0  0  0  0  0
    5.9636    2.9255   54.8587 C   0  0  0  0  0
    5.5776    7.3284   56.5688 C   0  0  0  0  0
    4.2673    7.3667   56.1417 C   0  0  0  0  0
    3.2494    6.7735   56.8929 C   0  0  0  0  0
    3.5884    6.1377   58.0987 C   0  0  0  0  0
    4.9291    6.1058   58.5307 C   0  0  0  0  0
    5.9400    6.7032   57.7627 C   0  0  0  0  0
    4.1608    8.0710   54.8232 C   0  0  0  0  0
    3.3001    9.3180   54.9477 C   0  0  0  0  0
    3.6153    7.1325   53.7580 C   0  0  0  0  0
    2.9736   12.6476   45.8063 C   0  0  0  0  0
    2.5268   11.1963   45.7505 C   0  0  0  0  0
    2.2513   13.4019   46.9104 C   0  0  0  0  0
    2.7773   13.3177   44.4862 C   0  0  0  0  0
    3.9994   13.7159   44.0101 C   0  0  0  0  0
    4.1311   14.3869   42.7937 C   0  0  0  0  0
    2.9642   14.6428   42.0551 C   0  0  0  0  0
    1.7045   14.2317   42.5386 C   0  0  0  0  0
    1.6035   13.5618   43.7704 C   0  0  0  0  0
    5.0300   13.3601   44.9169 N   0  0  0  0  0
    6.4489    7.9680   55.6517 N   0  0  0  0  0
    5.2105    3.8522   55.5694 O   0  0  0  0  0
    5.3854    2.0672   54.1435 O   0  0  0  0  0
    1.0702    4.9021   58.0805 O   0  0  0  0  0
    1.8301    6.3748   60.0854 O   0  0  0  0  0
    2.8936    4.1835   59.7745 O   0  0  0  0  0
   -1.0860   13.9488   42.3931 O   0  0  0  0  0
    0.3773   13.9123   40.2512 O   0  0  0  0  0
    0.0994   16.0482   41.4339 O   0  0  0  0  0
    2.3368    5.3892   59.0710 S   0  0  0  0  0
    0.2618   14.5638   41.6001 S   0  0  0  0  0
  1  2  1  0  0  0
  2 36  1  0  0  0
  3  4  1  0  0  0
  5  6  1  0  0  0
  7  8  1  0  0  0
  9 10  1  0  0  0
 11 37  1  0  0  0
 12 37  1  0  0  0
 12 13  1  0  0  0
 13 14  1  0  0  0
 14 15  1  0  0  0
 15 16  1  0  0  0
 16 17  1  0  0  0
 17 38  1  0  0  0
 19 20  1  0  0  0
 21 22  1  0  0  0
 23 18  1  0  0  0
 24 19  1  0  0  0
 24 25  1  0  0  0
 24 26  1  0  0  0
 24 11  1  0  0  0
 27  3  1  0  0  0
 27 28  1  0  0  0
 27 29  1  0  0  0
 27 30  1  0  0  0
 31 32  1  0  0  0
 31 36  1  0  0  0
 33 34  1  0  0  0
 35 30  1  0  0  0
 37 18  1  0  0  0
 46 21  1  0  0  0
 46 40  1  0  0  0
 47 34  1  0  0  0
 47 43  1  0  0  0
  4  5  2  0  0  0
  6  7  2  0  0  0
  8  9  2  0  0  0
 10 11  2  0  0  0
 17 39  2  0  0  0
 18 19  2  0  0  0
 20 21  2  0  0  0
 22 23  2  0  0  0
 30 31  2  0  0  0
 32 33  2  0  0  0
 34 35  2  0  0  0
 36  3  2  0  0  0
 46 41  2  0  0  0
 46 42  2  0  0  0
 47 44  2  0  0  0
 47 45  2  0  0  0
M  CHG  2  36   1  43  -1
M  END
> <rmsd>
0.766892552

$$$$
MolPort-046-417-410


 47 50  0  0  0  0  0  0  0  0999 V2000
    6.9985   13.3219   43.9696 C   0  0  0  0  0
    6.3506   14.1042   45.0965 C   0  0  0  0  0
    4.3919   13.1311   46.2235 C   0  0  0  0  0
    5.1723   12.6856   47.3952 C   0  0  0  0  0
    4.6166   12.0526   48.4195 C   0  0  0  0  0
    5.4354   11.6362   49.5512 C   0  0  0  0  0
    4.8794   11.0022   50.5712 C   0  0  0  0  0
    5.6969   10.5859   51.7043 C   0  0  0  0  0
    5.1402    9.9495   52.7220 C   0  0  0  0  0
    5.9585    9.5318   53.8601 C   0  0  0  0  0
    5.4597    8.8805   54.9179 C   0  0  0  0  0
    7.7354    8.4029   56.0353 C   0  0  0  0  0
    8.2190    7.2475   55.1702 C   0  0  0  0  0
    7.8670    5.9222   55.8155 C   0  0  0  0  0
    8.0833    4.7960   54.8247 C   0  0  0  0  0
    7.5453    3.4904   55.3871 C   0  0  0  0  0
    6.0610    3.4151   55.2454 C   0  0  0  0  0
    5.4087    7.8021   56.9154 C   0  0  0  0  0
    4.1123    7.7748   56.4470 C   0  0  0  0  0
    3.1009    7.1365   57.1694 C   0  0  0  0  0
    3.4317    6.5234   58.3892 C   0  0  0  0  0
    4.7580    6.5586   58.8634 C   0  0  0  0  0
    5.7628    7.2006   58.1238 C   0  0  0  0  0
    4.0138    8.4670   55.1214 C   0  0  0  0  0
    3.0903    9.6713   55.2111 C   0  0  0  0  0
    3.5483    7.4982   54.0454 C   0  0  0  0  0
    2.8937   12.9388   46.0436 C   0  0  0  0  0
    2.5195   11.4673   45.9827 C   0  0  0  0  0
    2.1012   13.6623   47.1198 C   0  0  0  0  0
    2.7073   13.5925   44.7139 C   0  0  0  0  0
    3.9233   14.0473   44.2740 C   0  0  0  0  0
    4.0609   14.7181   43.0583 C   0  0  0  0  0
    2.9070   14.9138   42.2818 C   0  0  0  0  0
    1.6540   14.4444   42.7279 C   0  0  0  0  0
    1.5464   13.7760   43.9600 C   0  0  0  0  0
    4.9405   13.7461   45.2150 N   0  0  0  0  0
    6.2767    8.4789   56.0222 N   0  0  0  0  0
    5.2418    4.3075   55.9263 O   0  0  0  0  0
    5.5479    2.5265   54.5177 O   0  0  0  0  0
    0.9780    5.1671   58.2993 O   0  0  0  0  0
    1.6018    6.6842   60.3181 O   0  0  0  0  0
    2.7793    4.5456   60.0543 O   0  0  0  0  0
   -1.1136   14.0259   42.4964 O   0  0  0  0  0
    0.4170   14.0504   40.4018 O   0  0  0  0  0
   -0.0011   16.1758   41.5620 O   0  0  0  0  0
    2.1875    5.7197   59.3262 S   0  0  0  0  0
    0.2274   14.7018   41.7424 S   0  0  0  0  0
  1  2  1  0  0  0
  2 36  1  0  0  0
  3  4  1  0  0  0
  5  6  1  0  0  0
  7  8  1  0  0  0
  9 10  1  0  0  0
 11 37  1  0  0  0
 12 37  1  0  0  0
 12 13  1  0  0  0
 13 14  1  0  0  0
 14 15  1  0  0  0
 15 16  1  0  0  0
 16 17  1  0  0  0
 17 38  1  0  0  0
 19 20  1  0  0  0
 21 22  1  0  0  0
 23 18  1  0  0  0
 24 19  1  0  0  0
 24 25  1  0  0  0
 24 26  1  0  0  0
 24 11  1  0  0  0
 27  3  1  0  0  0
 27 28  1  0  0  0
 27 29  1  0  0  0
 27 30  1  0  0  0
 31 32  1  0  0  0
 31 36  1  0  0  0
 33 34  1  0  0  0
 35 30  1  0  0  0
 37 18  1  0  0  0
 46 21  1  0  0  0
 46 40  1  0  0  0
 47 34  1  0  0  0
 47 43  1  0  0  0
  4  5  2  0  0  0
  6  7  2  0  0  0
  8  9  2  0  0  0
 10 11  2  0  0  0
 17 39  2  0  0  0
 18 19  2  0  0  0
 20 21  2  0  0  0
 22 23  2  0  0  0
 30 31  2  0  0  0
 32 33  2  0  0  0
 34 35  2  0  0  0
 36  3  2  0  0  0
 46 41  2  0  0  0
 46 42  2  0  0  0
 47 44  2  0  0  0
 47 45  2  0  0  0
M  CHG  2  36   1  43  -1
M  END
> <rmsd>
0.780598998

$$$$
MolPort-047-772-493


 84 93  0  0  0  0  0  0  0  0999 V2000
    2.9524   12.5789   39.4048 C   0  0  0  0  0
    2.1540   12.9865   40.6318 C   0  0  0  0  0
    1.4123   11.7825   41.2053 C   0  0  0  0  0
    2.3802   10.6757   41.6302 C   0  0  0  0  0
    2.9101   10.8207   43.0641 C   0  0  0  0  0
    3.1339    8.6774   43.7514 C   0  0  0  0  0
    3.8204    8.0623   44.9733 C   0  0  0  0  0
    2.8884    8.3792   46.1275 C   0  0  0  0  0
    2.9277    7.4759   47.3576 C   0  0  0  0  0
    4.3446    7.2219   47.8826 C   0  0  0  0  0
    4.7407    8.0292   49.0867 C   0  0  0  0  0
    3.9232    8.8533   49.7560 C   0  0  0  0  0
    4.4966    9.6126   50.9183 C   0  0  0  0  0
    3.5536    9.5203   52.1176 C   0  0  0  0  0
    2.1680   10.0300   51.7203 C   0  0  0  0  0
    1.5781    9.2061   50.5717 C   0  0  0  0  0
    2.4880    9.1311   49.3297 C   0  0  0  0  0
    2.4530   10.4776   48.6150 C   0  0  0  0  0
    1.9371    7.9981   48.4267 C   0  0  0  0  0
    0.5214    8.2812   47.8532 C   0  0  0  0  0
    0.5395    9.0725   46.5269 C   0  0  0  0  0
    1.4948    8.4135   45.5267 C   0  0  0  0  0
    0.9637    7.0121   45.2003 C   0  0  0  0  0
    1.7304    9.1098   44.1836 C   0  0  0  0  0
    1.7744   10.6314   44.0730 C   0  0  0  0  0
    2.0950   11.3355   45.3903 C   0  0  0  0  0
    3.7228    8.2039   53.9318 C   0  0  0  0  0
    2.9225    6.0101   54.3062 C   0  0  0  0  0
    2.3098    5.6506   52.9572 C   0  0  0  0  0
    4.3456    5.4503   54.4884 C   0  0  0  0  0
    4.4843    3.9186   56.0990 C   0  0  0  0  0
    5.2831    1.8664   55.7261 C   0  0  0  0  0
    6.3178    1.0489   54.9854 C   0  0  0  0  0
    5.1368    1.3470   57.1597 C   0  0  0  0  0
    4.8881    2.4741   58.1750 C   0  0  0  0  0
    4.1557    3.6926   57.5819 C   0  0  0  0  0
    2.4393    4.4260   58.7749 C   0  0  0  0  0
    2.0769    4.6148   60.9933 C   0  0  0  0  0
    2.1006    3.8952   62.3280 C   0  0  0  0  0
    0.8246    5.4952   60.8631 C   0  0  0  0  0
    0.8660    6.2311   59.5223 C   0  0  0  0  0
    1.2203    5.2681   58.3803 C   0  0  0  0  0
    5.3825    6.3527   53.8170 C   0  0  0  0  0
    7.2275    5.5134   52.9117 C   0  0  0  0  0
    8.7976    3.9317   53.6809 C   0  0  0  0  0
    8.5976    4.0086   55.1839 C   0  0  0  0  0
    9.9875    4.7792   53.2169 C   0  0  0  0  0
    9.6048    5.6998   52.0690 C   0  0  0  0  0
    8.3407    6.4627   52.4404 C   0  0  0  0  0
    5.1669    7.7970   54.2528 C   0  0  0  0  0
    1.1592   14.0499   40.2089 C   0  0  0  0  0
   -0.8087   14.5940   41.0985 C   0  0  0  0  0
   -1.5424   15.4484   43.1861 C   0  0  0  0  0
   -0.2108   15.6580   43.9049 C   0  0  0  0  0
   -2.0833   16.7381   42.5535 C   0  0  0  0  0
   -1.3510   17.0424   41.2463 C   0  0  0  0  0
   -1.3205   15.8206   40.3274 C   0  0  0  0  0
    3.5347   12.0651   43.2024 O   0  0  0  0  0
    3.8534    9.8029   43.3013 O   0  0  0  0  0
    3.4743    8.1900   52.5507 O   0  0  0  0  0
    2.7864    7.3910   54.6303 O   0  0  0  0  0
    2.0526    4.2811   52.9063 O   0  0  0  0  0
    4.6365    5.2884   55.8508 O   0  0  0  0  0
    5.6458    3.2211   55.7224 O   0  0  0  0  0
    4.1028    0.4144   57.2183 O   0  0  0  0  0
    6.1078    2.8860   58.7113 O   0  0  0  0  0
    2.7760    3.5489   57.7418 O   0  0  0  0  0
    2.1417    3.6902   59.9355 O   0  0  0  0  0
    3.3078    3.2038   62.4675 O   0  0  0  0  0
   -0.3356    4.7248   60.9371 O   0  0  0  0  0
    1.7931    7.2674   59.5892 O   0  0  0  0  0
    1.4725    5.9783   57.2048 O   0  0  0  0  0
    6.6810    5.9341   54.1318 O   0  0  0  0  0
    7.5936    4.1410   52.9561 O   0  0  0  0  0
   11.0331    3.9380   52.8249 O   0  0  0  0  0
   10.6384    6.6006   51.8319 O   0  0  0  0  0
    7.8849    7.2021   51.3482 O   0  0  0  0  0
    6.0693    8.6425   53.6033 O   0  0  0  0  0
    0.5741   14.6488   41.3308 O   0  0  0  0  0
   -1.5331   14.3338   42.2979 O   0  0  0  0  0
    0.0871   14.5463   44.6941 O   0  0  0  0  0
   -3.4550   16.6094   42.3309 O   0  0  0  0  0
   -1.9230   18.1408   40.5945 O   0  0  0  0  0
   -2.5876   15.5568   39.7988 O   0  0  0  0  0
  1  2  1  0  0  0
  2  3  1  0  0  0
  2 51  1  0  0  0
  3  4  1  0  0  0
  4  5  1  0  0  0
  5 58  1  0  0  0
  5 59  1  0  0  0
  6 59  1  0  0  0
  6  7  1  0  0  0
  7  8  1  0  0  0
  8  9  1  0  0  0
  9 10  1  0  0  0
 10 11  1  0  0  0
 13 12  1  0  0  0
 13 14  1  0  0  0
 14 15  1  0  0  0
 14 60  1  0  0  0
 15 16  1  0  0  0
 16 17  1  0  0  0
 17 18  1  0  0  0
 17 19  1  0  0  0
 17 12  1  0  0  0
 19 20  1  0  0  0
 19  9  1  0  0  0
 20 21  1  0  0  0
 21 22  1  0  0  0
 22 23  1  0  0  0
 22 24  1  0  0  0
 22  8  1  0  0  0
 24 25  1  0  0  0
 24  6  1  0  0  0
 25 26  1  0  0  0
 25  5  1  0  0  0
 27 60  1  0  0  0
 27 61  1  0  0  0
 28 61  1  0  0  0
 28 29  1  0  0  0
 28 30  1  0  0  0
 29 62  1  0  0  0
 30 63  1  0  0  0
 30 43  1  0  0  0
 31 63  1  0  0  0
 31 64  1  0  0  0
 32 64  1  0  0  0
 32 33  1  0  0  0
 32 34  1  0  0  0
 34 65  1  0  0  0
 34 35  1  0  0  0
 35 66  1  0  0  0
 35 36  1  0  0  0
 36 67  1  0  0  0
 36 31  1  0  0  0
 37 67  1  0  0  0
 37 68  1  0  0  0
 38 68  1  0  0  0
 38 39  1  0  0  0
 38 40  1  0  0  0
 39 69  1  0  0  0
 40 70  1  0  0  0
 40 41  1  0  0  0
 41 71  1  0  0  0
 41 42  1  0  0  0
 42 72  1  0  0  0
 42 37  1  0  0  0
 43 73  1  0  0  0
 43 50  1  0  0  0
 44 73  1  0  0  0
 44 74  1  0  0  0
 45 74  1  0  0  0
 45 46  1  0  0  0
 45 47  1  0  0  0
 47 75  1  0  0  0
 47 48  1  0  0  0
 48 76  1  0  0  0
 48 49  1  0  0  0
 49 77  1  0  0  0
 49 44  1  0  0  0
 50 78  1  0  0  0
 50 27  1  0  0  0
 51 79  1  0  0  0
 52 79  1  0  0  0
 52 80  1  0  0  0
 53 80  1  0  0  0
 53 54  1  0  0  0
 53 55  1  0  0  0
 54 81  1  0  0  0
 55 82  1  0  0  0
 55 56  1  0  0  0
 56 83  1  0  0  0
 56 57  1  0  0  0
 57 84  1  0  0  0
 57 52  1  0  0  0
 11 12  2  0  0  0
M  END
> <rmsd>
0.747894287

$$$$
MolPort-047-772-493


 84 93  0  0  0  0  0  0  0  0999 V2000
    1.0851    9.8103   39.5122 C   0  0  0  0  0
    0.8782   10.8350   40.6151 C   0  0  0  0  0
   -0.0730   10.2875   41.6753 C   0  0  0  0  0
    0.4791    9.0158   42.3236 C   0  0  0  0  0
    1.4017    9.2720   43.5239 C   0  0  0  0  0
    0.9772    7.5166   44.8858 C   0  0  0  0  0
    1.6902    6.9978   46.1368 C   0  0  0  0  0
    1.3107    7.9863   47.2232 C   0  0  0  0  0
    1.3458    7.5143   48.6746 C   0  0  0  0  0
    2.6456    6.7956   49.0508 C   0  0  0  0  0
    3.6376    7.6188   49.8233 C   0  0  0  0  0
    3.4162    8.8640   50.2658 C   0  0  0  0  0
    4.5347    9.5556   50.9918 C   0  0  0  0  0
    4.0028   10.2109   52.2659 C   0  0  0  0  0
    2.8633   11.1672   51.9130 C   0  0  0  0  0
    1.7095   10.4313   51.2250 C   0  0  0  0  0
    2.1369    9.6369   49.9750 C   0  0  0  0  0
    2.4178   10.6190   48.8430 C   0  0  0  0  0
    0.9687    8.6827   49.6179 C   0  0  0  0  0
   -0.3325    9.4133   49.1863 C   0  0  0  0  0
   -0.3863    9.7388   47.6775 C   0  0  0  0  0
   -0.0731    8.4872   46.8513 C   0  0  0  0  0
   -1.1648    7.4437   47.1194 C   0  0  0  0  0
    0.0241    8.6293   45.3298 C   0  0  0  0  0
    0.6098    9.8818   44.6834 C   0  0  0  0  0
    1.5276   10.6801   45.6077 C   0  0  0  0  0
    4.1586    9.4783   54.3854 C   0  0  0  0  0
    2.7243    8.0596   55.6196 C   0  0  0  0  0
    1.6709    7.6792   54.5853 C   0  0  0  0  0
    3.8178    6.9880   55.7861 C   0  0  0  0  0
    3.8082    6.0324   57.7976 C   0  0  0  0  0
    3.6294    3.8223   58.0661 C   0  0  0  0  0
    4.0249    2.4665   57.5247 C   0  0  0  0  0
    3.7034    3.8145   59.5960 C   0  0  0  0  0
    4.1954    5.1524   60.1715 C   0  0  0  0  0
    3.8465    6.3702   59.2951 C   0  0  0  0  0
    2.9440    8.0776   60.3803 C   0  0  0  0  0
    3.3154    8.9755   62.4160 C   0  0  0  0  0
    3.4356    8.6946   63.9015 C   0  0  0  0  0
    2.5087   10.2578   62.1604 C   0  0  0  0  0
    2.4504   10.5217   60.6544 C   0  0  0  0  0
    2.0785    9.2439   59.8889 C   0  0  0  0  0
    4.8875    7.1194   54.7005 C   0  0  0  0  0
    5.9435    5.3380   53.9007 C   0  0  0  0  0
    6.9425    3.4785   54.9507 C   0  0  0  0  0
    7.2149    4.0226   56.3416 C   0  0  0  0  0
    8.1843    3.5478   54.0547 C   0  0  0  0  0
    7.8758    4.2102   52.7215 C   0  0  0  0  0
    7.1542    5.5270   52.9728 C   0  0  0  0  0
    5.3674    8.5638   54.6232 C   0  0  0  0  0
    0.2864   12.0823   39.9878 C   0  0  0  0  0
   -0.9944   13.6625   40.8946 C   0  0  0  0  0
   -0.7343   15.2626   42.6263 C   0  0  0  0  0
    0.7204   15.0285   43.0298 C   0  0  0  0  0
   -0.8983   16.4450   41.6613 C   0  0  0  0  0
   -0.5018   16.0378   40.2420 C   0  0  0  0  0
   -1.1953   14.7421   39.8198 C   0  0  0  0  0
    2.4636   10.0906   43.1241 O   0  0  0  0  0
    1.9135    8.0389   43.9705 O   0  0  0  0  0
    3.5486    9.2213   53.1480 O   0  0  0  0  0
    3.2190    9.3851   55.4503 O   0  0  0  0  0
    0.9099    6.6109   55.0585 O   0  0  0  0  0
    4.3932    7.0708   57.0625 O   0  0  0  0  0
    4.4627    4.8163   57.5327 O   0  0  0  0  0
    2.4537    3.4976   60.1252 O   0  0  0  0  0
    5.5773    5.0945   60.3504 O   0  0  0  0  0
    2.6196    6.9094   59.6877 O   0  0  0  0  0
    2.7262    7.8825   61.7556 O   0  0  0  0  0
    4.2768    7.5965   64.1053 O   0  0  0  0  0
    1.2136   10.1401   62.6642 O   0  0  0  0  0
    3.6802   11.0079   60.2196 O   0  0  0  0  0
    2.2424    9.4338   58.5153 O   0  0  0  0  0
    5.9618    6.2589   54.9572 O   0  0  0  0  0
    5.7577    4.0116   54.3755 O   0  0  0  0  0
    8.6777    2.2570   53.8428 O   0  0  0  0  0
    9.0633    4.4541   52.0385 O   0  0  0  0  0
    6.7280    6.0819   51.7654 O   0  0  0  0  0
    6.3031    8.7128   53.5969 O   0  0  0  0  0
    0.3110   13.1475   40.8958 O   0  0  0  0  0
   -1.3972   14.0760   42.1976 O   0  0  0  0  0
    0.7814   14.1482   44.1109 O   0  0  0  0  0
   -2.2192   16.8944   41.6936 O   0  0  0  0  0
   -0.7712   17.0657   39.3312 O   0  0  0  0  0
   -2.5606   14.9499   39.6022 O   0  0  0  0  0
  1  2  1  0  0  0
  2  3  1  0  0  0
  2 51  1  0  0  0
  3  4  1  0  0  0
  4  5  1  0  0  0
  5 58  1  0  0  0
  5 59  1  0  0  0
  6 59  1  0  0  0
  6  7  1  0  0  0
  7  8  1  0  0  0
  8  9  1  0  0  0
  9 10  1  0  0  0
 10 11  1  0  0  0
 13 12  1  0  0  0
 13 14  1  0  0  0
 14 15  1  0  0  0
 14 60  1  0  0  0
 15 16  1  0  0  0
 16 17  1  0  0  0
 17 18  1  0  0  0
 17 19  1  0  0  0
 17 12  1  0  0  0
 19 20  1  0  0  0
 19  9  1  0  0  0
 20 21  1  0  0  0
 21 22  1  0  0  0
 22 23  1  0  0  0
 22 24  1  0  0  0
 22  8  1  0  0  0
 24 25  1  0  0  0
 24  6  1  0  0  0
 25 26  1  0  0  0
 25  5  1  0  0  0
 27 60  1  0  0  0
 27 61  1  0  0  0
 28 61  1  0  0  0
 28 29  1  0  0  0
 28 30  1  0  0  0
 29 62  1  0  0  0
 30 63  1  0  0  0
 30 43  1  0  0  0
 31 63  1  0  0  0
 31 64  1  0  0  0
 32 64  1  0  0  0
 32 33  1  0  0  0
 32 34  1  0  0  0
 34 65  1  0  0  0
 34 35  1  0  0  0
 35 66  1  0  0  0
 35 36  1  0  0  0
 36 67  1  0  0  0
 36 31  1  0  0  0
 37 67  1  0  0  0
 37 68  1  0  0  0
 38 68  1  0  0  0
 38 39  1  0  0  0
 38 40  1  0  0  0
 39 69  1  0  0  0
 40 70  1  0  0  0
 40 41  1  0  0  0
 41 71  1  0  0  0
 41 42  1  0  0  0
 42 72  1  0  0  0
 42 37  1  0  0  0
 43 73  1  0  0  0
 43 50  1  0  0  0
 44 73  1  0  0  0
 44 74  1  0  0  0
 45 74  1  0  0  0
 45 46  1  0  0  0
 45 47  1  0  0  0
 47 75  1  0  0  0
 47 48  1  0  0  0
 48 76  1  0  0  0
 48 49  1  0  0  0
 49 77  1  0  0  0
 49 44  1  0  0  0
 50 78  1  0  0  0
 50 27  1  0  0  0
 51 79  1  0  0  0
 52 79  1  0  0  0
 52 80  1  0  0  0
 53 80  1  0  0  0
 53 54  1  0  0  0
 53 55  1  0  0  0
 54 81  1  0  0  0
 55 82  1  0  0  0
 55 56  1  0  0  0
 56 83  1  0  0  0
 56 57  1  0  0  0
 57 84  1  0  0  0
 57 52  1  0  0  0
 11 12  2  0  0  0
M  END
> <rmsd>
0.880226731

$$$$
MolPort-047-940-476


121122  0  0  0  0  0  0  0  0999 V2000
   -0.3873    6.5582   50.2935 C   0  0  0  0  0
    1.6217    7.5659   48.9223 C   0  0  0  0  0
    1.0393    8.9551   48.6958 C   0  0  0  0  0
    2.0074   10.0439   49.1333 C   0  0  0  0  0
    2.9002   11.0124   51.3130 C   0  0  0  0  0
    2.8610   11.0492   52.8062 C   0  0  0  0  0
    1.7757   11.9786   53.3567 C   0  0  0  0  0
    0.4119   11.3133   53.5351 C   0  0  0  0  0
   -0.3460   11.2788   52.2233 C   0  0  0  0  0
   -0.3911   12.1002   54.5474 C   0  0  0  0  0
    3.9461    8.9483   53.6737 C   0  0  0  0  0
    3.7829    7.5547   54.1979 C   0  0  0  0  0
    5.0621    6.7172   54.0924 C   0  0  0  0  0
    5.1489    5.9152   52.7942 C   0  0  0  0  0
    5.2000    6.8119   51.5679 C   0  0  0  0  0
    4.0101    4.9180   52.6744 C   0  0  0  0  0
    3.9693    8.1802   56.6684 C   0  0  0  0  0
    3.2258    8.4019   57.9415 C   0  0  0  0  0
    3.3305    9.8536   58.4111 C   0  0  0  0  0
    2.6748   10.8242   57.4350 C   0  0  0  0  0
    1.1862   10.7170   57.4557 C   0  0  0  0  0
    2.8707    6.8979   59.9328 C   0  0  0  0  0
    3.4352    5.9844   60.9819 C   0  0  0  0  0
    3.9236    6.7705   62.2026 C   0  0  0  0  0
    5.0066    7.7918   61.8707 C   0  0  0  0  0
    6.3749    7.1322   61.8718 C   0  0  0  0  0
    4.9879    8.8955   62.9106 C   0  0  0  0  0
    4.2910    4.1759   59.4094 C   0  0  0  0  0
    5.4417    3.3725   58.8976 C   0  0  0  0  0
    6.6048    4.2630   58.4789 C   0  0  0  0  0
    6.2968    5.0495   57.2105 C   0  0  0  0  0
    6.3378    4.1709   56.0038 C   0  0  0  0  0
    7.4489    4.3104   55.0233 C   0  0  0  0  0
    1.5834   11.3573   48.5620 C   0  0  0  0  0
    0.1327   13.4109   48.8012 C   0  0  0  0  0
   -0.7765   13.9425   49.8946 C   0  0  0  0  0
   -0.4512   15.3957   50.1875 C   0  0  0  0  0
   -1.0586   15.7908   51.4923 C   0  0  0  0  0
   -0.4575   13.5985   47.4413 C   0  0  0  0  0
   -0.1109   14.5524   45.0830 C   0  0  0  0  0
   -0.9333   13.4700   44.3892 C   0  0  0  0  0
   -0.8547   15.8530   45.1836 C   0  0  0  0  0
   -1.7733   17.9098   44.0053 C   0  0  0  0  0
   -1.7080   18.5608   42.6213 C   0  0  0  0  0
   -0.2818   18.9367   42.2778 C   0  0  0  0  0
   -3.1816   17.8685   44.5261 C   0  0  0  0  0
   -2.5092   18.9401   46.7278 C   0  0  0  0  0
   -3.2622   19.2398   48.0109 C   0  0  0  0  0
   -4.6602   18.6560   47.8372 C   0  0  0  0  0
   -4.8454   18.4465   46.3447 C   0  0  0  0  0
   -5.6703   19.5610   45.7576 C   0  0  0  0  0
   -7.2284   17.9208   44.6112 C   0  0  0  0  0
   -8.4336   18.0691   43.7019 C   0  0  0  0  0
   -8.8884   19.5193   43.8119 C   0  0  0  0  0
   -7.7714   20.2806   44.5088 C   0  0  0  0  0
   -7.1128   21.2115   43.5417 C   0  0  0  0  0
   -5.8341   21.5534   41.3871 C   0  0  0  0  0
   -4.6405   20.9095   40.6716 C   0  0  0  0  0
   -4.9533   19.5308   40.1035 C   0  0  0  0  0
   -6.9712   21.9189   40.4751 C   0  0  0  0  0
   -8.9917   20.9847   39.2264 C   0  0  0  0  0
   -9.4660   19.6397   38.6545 C   0  0  0  0  0
   -8.5826   19.0080   37.6149 C   0  0  0  0  0
   -9.2404   22.1406   38.3093 C   0  0  0  0  0
   -9.0053   23.2324   36.0363 C   0  0  0  0  0
   -8.6705   22.8022   34.6033 C   0  0  0  0  0
   -7.2080   22.6258   34.3427 C   0  0  0  0  0
   -8.4012   24.5509   36.4129 C   0  0  0  0  0
   -8.8136   27.0110   36.9876 C   0  0  0  0  0
   -7.9950   27.0387   38.2785 C   0  0  0  0  0
   -8.8929   26.8791   39.4943 C   0  0  0  0  0
   -9.5293   28.2045   39.8802 C   0  0  0  0  0
  -11.9496   28.7530   39.3775 C   0  0  0  0  0
   -8.0804   27.5987   35.8160 C   0  0  0  0  0
    1.3388    7.0099   50.6310 S   0  0  0  0  0
    2.0416   10.1265   50.5882 N   0  0  0  0  0
    2.7777    9.7060   53.3669 N   0  0  0  0  0
    3.2800    7.5821   55.5668 N   0  0  0  0  0
    0.4061   11.7994   57.9454 N   0  0  0  0  0
    3.7338    7.5120   58.9708 N   0  0  0  0  0
    4.5015    5.1457   60.4409 N   0  0  0  0  0
    0.4104   12.0042   49.0529 N   0  0  0  0  0
    0.3710   14.1023   46.3869 N   0  0  0  0  0
   -1.1750   16.5769   43.9915 N   0  0  0  0  0
   -3.5105   18.4797   45.7825 N   0  0  0  0  0
   -6.8419   19.2680   44.9809 N   0  0  0  0  0
   -6.3205   20.7019   42.4657 N   0  0  0  0  0
   -7.6074   20.9082   39.6875 N   0  0  0  0  0
   -8.9583   17.7536   37.0618 N   0  0  0  0  0
   -8.6603   22.1903   36.9982 N   0  0  0  0  0
   -6.4627   21.6214   35.0215 N   0  0  0  0  0
   -9.2679   25.6546   36.6847 N   0  0  0  0  0
  -10.6005   28.5406   38.9501 N   0  0  0  0  0
  -12.9605   28.9966   38.4067 N   0  0  0  0  0
  -12.2616   28.7068   40.6291 N   0  0  0  0  0
    3.6872   11.7826   50.7014 O   0  0  0  0  0
    5.0904    9.4680   53.5597 O   0  0  0  0  0
    5.1782    8.5337   56.5624 O   0  0  0  0  0
    0.6179    9.6856   57.0133 O   0  0  0  0  0
    1.6337    7.1466   59.9348 O   0  0  0  0  0
    3.1372    3.9699   58.9484 O   0  0  0  0  0
    5.8665    2.4833   59.8851 O   0  0  0  0  0
    5.4506    3.3572   55.8045 O   0  0  0  0  0
    2.2993   11.9103   47.6868 O   0  0  0  0  0
   -2.4397   15.7930   51.6498 O   0  0  0  0  0
   -0.3221   16.1237   52.4543 O   0  0  0  0  0
   -1.6620   13.2849   47.2216 O   0  0  0  0  0
   -1.0211   13.7325   43.0179 O   0  0  0  0  0
   -1.1715   16.3171   46.3117 O   0  0  0  0  0
   -2.2187   17.7043   41.6417 O   0  0  0  0  0
   -4.0757   17.2729   43.8622 O   0  0  0  0  0
   -5.3039   20.7557   45.9174 O   0  0  0  0  0
   -7.2627   22.4547   43.6889 O   0  0  0  0  0
   -4.1706   21.7452   39.6574 O   0  0  0  0  0
   -7.3965   23.1047   40.4634 O   0  0  0  0  0
   -7.5245   19.5698   37.2142 O   0  0  0  0  0
  -10.0100   23.0618   38.6946 O   0  0  0  0  0
   -6.6383   23.3497   33.4807 O   0  0  0  0  0
   -7.1465   24.6801   36.4945 O   0  0  0  0  0
   -8.7690   27.8494   34.6367 O   0  0  0  0  0
   -6.8512   27.8616   35.8848 O   0  0  0  0  0
  1 75  1  0  0  0
  2 75  1  0  0  0
  2  3  1  0  0  0
  3  4  1  0  0  0
  4 76  1  0  0  0
  4 34  1  0  0  0
  6  5  1  0  0  0
  6  7  1  0  0  0
  6 77  1  0  0  0
  7  8  1  0  0  0
  8  9  1  0  0  0
  8 10  1  0  0  0
 12 11  1  0  0  0
 12 13  1  0  0  0
 12 78  1  0  0  0
 13 14  1  0  0  0
 14 15  1  0  0  0
 14 16  1  0  0  0
 18 17  1  0  0  0
 18 19  1  0  0  0
 18 80  1  0  0  0
 19 20  1  0  0  0
 20 21  1  0  0  0
 21 79  1  0  0  0
 23 22  1  0  0  0
 23 24  1  0  0  0
 23 81  1  0  0  0
 24 25  1  0  0  0
 25 26  1  0  0  0
 25 27  1  0  0  0
 29 28  1  0  0  0
 29102  1  0  0  0
 29 30  1  0  0  0
 30 31  1  0  0  0
 31 32  1  0  0  0
 33 32  1  0  0  0
 34 82  1  0  0  0
 35 82  1  0  0  0
 35 36  1  0  0  0
 35 39  1  0  0  0
 36 37  1  0  0  0
 37 38  1  0  0  0
 38105  1  0  0  0
 39 83  1  0  0  0
 40 83  1  0  0  0
 40 41  1  0  0  0
 40 42  1  0  0  0
 41108  1  0  0  0
 42 84  1  0  0  0
 43 84  1  0  0  0
 43 44  1  0  0  0
 43 46  1  0  0  0
 44 45  1  0  0  0
 44110  1  0  0  0
 46 85  1  0  0  0
 47 85  1  0  0  0
 47 48  1  0  0  0
 48 49  1  0  0  0
 49 50  1  0  0  0
 50 51  1  0  0  0
 50 85  1  0  0  0
 51 86  1  0  0  0
 52 86  1  0  0  0
 52 53  1  0  0  0
 53 54  1  0  0  0
 54 55  1  0  0  0
 55 56  1  0  0  0
 55 86  1  0  0  0
 56 87  1  0  0  0
 57 87  1  0  0  0
 57 58  1  0  0  0
 57 60  1  0  0  0
 58 59  1  0  0  0
 58114  1  0  0  0
 60 88  1  0  0  0
 61 88  1  0  0  0
 61 62  1  0  0  0
 61 64  1  0  0  0
 62 63  1  0  0  0
 63 89  1  0  0  0
 64 90  1  0  0  0
 65 90  1  0  0  0
 65 66  1  0  0  0
 65 68  1  0  0  0
 66 67  1  0  0  0
 67 91  1  0  0  0
 68 92  1  0  0  0
 69 92  1  0  0  0
 69 70  1  0  0  0
 69 74  1  0  0  0
 70 71  1  0  0  0
 71 72  1  0  0  0
 72 93  1  0  0  0
 73 94  1  0  0  0
 74120  1  0  0  0
 76  5  1  0  0  0
 77 11  1  0  0  0
 78 17  1  0  0  0
 80 22  1  0  0  0
 81 28  1  0  0  0
 93 73  1  0  0  0
  5 96  2  0  0  0
 11 97  2  0  0  0
 17 98  2  0  0  0
 21 99  2  0  0  0
 22100  2  0  0  0
 28101  2  0  0  0
 32103  2  0  0  0
 34104  2  0  0  0
 38106  2  0  0  0
 39107  2  0  0  0
 42109  2  0  0  0
 46111  2  0  0  0
 51112  2  0  0  0
 56113  2  0  0  0
 60115  2  0  0  0
 63116  2  0  0  0
 64117  2  0  0  0
 67118  2  0  0  0
 68119  2  0  0  0
 73 95  2  0  0  0
 74121  2  0  0  0
M  END
> <rmsd>
0.66440618

$$$$
MolPort-047-940-476


121122  0  0  0  0  0  0  0  0999 V2000
   -4.7211    6.2331   50.0303 C   0  0  0  0  0
   -3.0575    6.1886   52.0508 C   0  0  0  0  0
   -1.7213    6.5235   51.4076 C   0  0  0  0  0
   -1.0229    7.6351   52.1810 C   0  0  0  0  0
    0.5592    9.5484   51.6726 C   0  0  0  0  0
    1.6020   10.1231   50.7682 C   0  0  0  0  0
    2.9127   10.3878   51.5065 C   0  0  0  0  0
    4.0679   10.5670   50.5331 C   0  0  0  0  0
    4.4187    9.2441   49.8772 C   0  0  0  0  0
    5.2767   11.0793   51.2897 C   0  0  0  0  0
    0.7615   12.5551   50.7037 C   0  0  0  0  0
   -0.0483   13.5662   49.9513 C   0  0  0  0  0
    0.8268   14.5944   49.2323 C   0  0  0  0  0
    1.7816   13.9848   48.2109 C   0  0  0  0  0
    2.8954   14.9714   47.9297 C   0  0  0  0  0
    1.0587   13.6902   46.9089 C   0  0  0  0  0
   -2.0969   12.1613   49.4587 C   0  0  0  0  0
   -2.6776   11.0898   48.5913 C   0  0  0  0  0
   -2.0593    9.7628   48.9903 C   0  0  0  0  0
   -2.8064    8.5954   48.3716 C   0  0  0  0  0
   -2.1078    8.1304   47.1413 C   0  0  0  0  0
   -3.1072   12.3626   46.4500 C   0  0  0  0  0
   -2.6837   12.6722   45.0489 C   0  0  0  0  0
   -3.4108   11.7967   44.0242 C   0  0  0  0  0
   -4.9232   11.9912   44.0192 C   0  0  0  0  0
   -5.5800   10.7157   43.5321 C   0  0  0  0  0
   -5.3046   13.1264   43.0919 C   0  0  0  0  0
   -2.2178   14.7450   43.6497 C   0  0  0  0  0
   -2.3882   16.2164   43.4589 C   0  0  0  0  0
   -3.8570   16.5782   43.3071 C   0  0  0  0  0
   -4.3135   16.3819   41.8663 C   0  0  0  0  0
   -3.9117   17.5038   40.9479 C   0  0  0  0  0
   -3.2970   18.7691   41.4555 C   0  0  0  0  0
   -0.2556    7.0631   53.3294 C   0  0  0  0  0
    1.8874    5.8939   54.0152 C   0  0  0  0  0
    3.0084    5.1282   53.3265 C   0  0  0  0  0
    3.6613    5.9595   52.2277 C   0  0  0  0  0
    4.5843    6.9870   52.7897 C   0  0  0  0  0
    1.4339    5.1628   55.2347 C   0  0  0  0  0
    1.5299    5.1246   57.7694 C   0  0  0  0  0
    1.0658    6.0696   58.8760 C   0  0  0  0  0
    2.9184    4.6147   58.0555 C   0  0  0  0  0
    5.3653    4.5798   57.3891 C   0  0  0  0  0
    6.1539    4.3254   56.1012 C   0  0  0  0  0
    7.5595    3.8558   56.4247 C   0  0  0  0  0
    5.8722    5.7987   58.1010 C   0  0  0  0  0
    6.5114    6.8460   60.2925 C   0  0  0  0  0
    7.5725    6.5321   61.3319 C   0  0  0  0  0
    8.2232    5.2120   60.9163 C   0  0  0  0  0
    7.3676    4.6414   59.7957 C   0  0  0  0  0
    6.6437    3.3678   60.1613 C   0  0  0  0  0
    4.7788    2.4431   61.5869 C   0  0  0  0  0
    4.6378    2.1423   63.0691 C   0  0  0  0  0
    5.6474    3.0311   63.7756 C   0  0  0  0  0
    6.6833    3.4031   62.7253 C   0  0  0  0  0
    7.9022    2.5341   62.8654 C   0  0  0  0  0
   10.4799    2.4634   62.8990 C   0  0  0  0  0
   10.8687    2.0924   61.4575 C   0  0  0  0  0
    9.9481    1.0397   60.8532 C   0  0  0  0  0
   10.6114    1.3835   63.9428 C   0  0  0  0  0
   11.2064   -0.9973   64.5621 C   0  0  0  0  0
   10.8962   -2.3584   63.9487 C   0  0  0  0  0
    9.4211   -2.5626   63.8418 C   0  0  0  0  0
   12.6115   -0.9475   65.0905 C   0  0  0  0  0
   14.1614   -0.1681   66.9665 C   0  0  0  0  0
   15.3275    0.2618   66.0652 C   0  0  0  0  0
   15.3568    1.7336   65.8006 C   0  0  0  0  0
   14.3882   -1.5110   67.6075 C   0  0  0  0  0
   13.5784   -3.2747   69.2356 C   0  0  0  0  0
   14.3911   -3.1289   70.5164 C   0  0  0  0  0
   15.8777   -3.1499   70.2014 C   0  0  0  0  0
   16.6352   -2.3369   71.2406 C   0  0  0  0  0
   17.1104   -0.2604   69.8626 C   0  0  0  0  0
   12.2214   -3.8242   69.5218 C   0  0  0  0  0
   -4.3429    7.3136   51.4364 S   0  0  0  0  0
   -0.1093    8.3420   51.2913 N   0  0  0  0  0
    1.1053   11.3123   50.0755 N   0  0  0  0  0
   -0.9541   12.9029   49.0198 N   0  0  0  0  0
   -0.7852    7.6092   47.2230 N   0  0  0  0  0
   -2.4052   11.3630   47.1867 N   0  0  0  0  0
   -2.8373   14.0943   44.7629 N   0  0  0  0  0
    0.7885    6.1162   53.0875 N   0  0  0  0  0
    1.4933    5.8307   56.4940 N   0  0  0  0  0
    3.9554    4.7663   57.0811 N   0  0  0  0  0
    6.4423    5.6985   59.4156 N   0  0  0  0  0
    6.0333    3.1582   61.4443 N   0  0  0  0  0
    9.1887    3.1544   62.9669 N   0  0  0  0  0
   10.9957    0.0544   63.5765 N   0  0  0  0  0
    8.6350   -2.6793   65.0246 N   0  0  0  0  0
   12.8902   -0.1483   66.2432 N   0  0  0  0  0
   16.4279    2.2812   65.0447 N   0  0  0  0  0
   13.4448   -1.9881   68.5692 N   0  0  0  0  0
   16.4821   -0.9124   70.9707 N   0  0  0  0  0
   16.8789    1.1263   69.6426 N   0  0  0  0  0
   17.9385   -0.8952   69.0981 N   0  0  0  0  0
    0.2613   10.1305   52.7510 O   0  0  0  0  0
    1.1263   12.8029   51.8857 O   0  0  0  0  0
   -2.5552   12.3360   50.6166 O   0  0  0  0  0
   -2.6958    8.1826   46.0283 O   0  0  0  0  0
   -4.0821   12.9728   46.9721 O   0  0  0  0  0
   -1.5069   14.0942   42.8383 O   0  0  0  0  0
   -1.8492   16.8911   44.5548 O   0  0  0  0  0
   -4.1138   17.3869   39.7496 O   0  0  0  0  0
   -0.4908    7.4738   54.4977 O   0  0  0  0  0
    5.9456    6.9121   52.5222 O   0  0  0  0  0
    4.1316    7.9503   53.4636 O   0  0  0  0  0
    1.0353    3.9710   55.1600 O   0  0  0  0  0
    1.9146    7.1757   58.9704 O   0  0  0  0  0
    3.1670    4.0535   59.1590 O   0  0  0  0  0
    5.5144    3.3389   55.3379 O   0  0  0  0  0
    5.7817    6.9294   57.5370 O   0  0  0  0  0
    6.5248    2.4764   59.2775 O   0  0  0  0  0
    7.7926    1.2777   62.8879 O   0  0  0  0  0
   12.1766    1.6155   61.4258 O   0  0  0  0  0
   10.3795    1.6617   65.1506 O   0  0  0  0  0
    8.8713   -2.6299   62.7141 O   0  0  0  0  0
   13.5329   -1.5914   64.5212 O   0  0  0  0  0
   14.4510    2.4959   66.2252 O   0  0  0  0  0
   15.3898   -2.2141   67.2923 O   0  0  0  0  0
   11.6530   -4.7319   68.6333 O   0  0  0  0  0
   11.5693   -3.4452   70.5325 O   0  0  0  0  0
  1 75  1  0  0  0
  2 75  1  0  0  0
  2  3  1  0  0  0
  3  4  1  0  0  0
  4 76  1  0  0  0
  4 34  1  0  0  0
  6  5  1  0  0  0
  6  7  1  0  0  0
  6 77  1  0  0  0
  7  8  1  0  0  0
  8  9  1  0  0  0
  8 10  1  0  0  0
 12 11  1  0  0  0
 12 13  1  0  0  0
 12 78  1  0  0  0
 13 14  1  0  0  0
 14 15  1  0  0  0
 14 16  1  0  0  0
 18 17  1  0  0  0
 18 19  1  0  0  0
 18 80  1  0  0  0
 19 20  1  0  0  0
 20 21  1  0  0  0
 21 79  1  0  0  0
 23 22  1  0  0  0
 23 24  1  0  0  0
 23 81  1  0  0  0
 24 25  1  0  0  0
 25 26  1  0  0  0
 25 27  1  0  0  0
 29 28  1  0  0  0
 29102  1  0  0  0
 29 30  1  0  0  0
 30 31  1  0  0  0
 31 32  1  0  0  0
 33 32  1  0  0  0
 34 82  1  0  0  0
 35 82  1  0  0  0
 35 36  1  0  0  0
 35 39  1  0  0  0
 36 37  1  0  0  0
 37 38  1  0  0  0
 38105  1  0  0  0
 39 83  1  0  0  0
 40 83  1  0  0  0
 40 41  1  0  0  0
 40 42  1  0  0  0
 41108  1  0  0  0
 42 84  1  0  0  0
 43 84  1  0  0  0
 43 44  1  0  0  0
 43 46  1  0  0  0
 44 45  1  0  0  0
 44110  1  0  0  0
 46 85  1  0  0  0
 47 85  1  0  0  0
 47 48  1  0  0  0
 48 49  1  0  0  0
 49 50  1  0  0  0
 50 51  1  0  0  0
 50 85  1  0  0  0
 51 86  1  0  0  0
 52 86  1  0  0  0
 52 53  1  0  0  0
 53 54  1  0  0  0
 54 55  1  0  0  0
 55 56  1  0  0  0
 55 86  1  0  0  0
 56 87  1  0  0  0
 57 87  1  0  0  0
 57 58  1  0  0  0
 57 60  1  0  0  0
 58 59  1  0  0  0
 58114  1  0  0  0
 60 88  1  0  0  0
 61 88  1  0  0  0
 61 62  1  0  0  0
 61 64  1  0  0  0
 62 63  1  0  0  0
 63 89  1  0  0  0
 64 90  1  0  0  0
 65 90  1  0  0  0
 65 66  1  0  0  0
 65 68  1  0  0  0
 66 67  1  0  0  0
 67 91  1  0  0  0
 68 92  1  0  0  0
 69 92  1  0  0  0
 69 70  1  0  0  0
 69 74  1  0  0  0
 70 71  1  0  0  0
 71 72  1  0  0  0
 72 93  1  0  0  0
 73 94  1  0  0  0
 74120  1  0  0  0
 76  5  1  0  0  0
 77 11  1  0  0  0
 78 17  1  0  0  0
 80 22  1  0  0  0
 81 28  1  0  0  0
 93 73  1  0  0  0
  5 96  2  0  0  0
 11 97  2  0  0  0
 17 98  2  0  0  0
 21 99  2  0  0  0
 22100  2  0  0  0
 28101  2  0  0  0
 32103  2  0  0  0
 34104  2  0  0  0
 38106  2  0  0  0
 39107  2  0  0  0
 42109  2  0  0  0
 46111  2  0  0  0
 51112  2  0  0  0
 56113  2  0  0  0
 60115  2  0  0  0
 63116  2  0  0  0
 64117  2  0  0  0
 67118  2  0  0  0
 68119  2  0  0  0
 73 95  2  0  0  0
 74121  2  0  0  0
M  END
> <rmsd>
0.659122407

$$$$
MolPort-009-753-047 PubChem-24208699


 60 64  0  0  0  0  0  0  0  0999 V2000
    5.3312    4.1504   59.9601 C   0  0  0  0  0
    4.3466    4.7152   58.9997 C   0  0  0  0  0
    3.7494    6.5245   57.4114 C   0  0  0  0  0
    4.0377    8.0270   57.2736 C   0  0  0  0  0
    3.5643    8.0968   55.0608 C   0  0  0  0  0
    3.1865    6.6106   54.9540 C   0  0  0  0  0
    3.9109    5.8303   56.0503 C   0  0  0  0  0
    5.9001    4.4653   55.5681 C   0  0  0  0  0
    7.3355    4.3946   55.1947 C   0  0  0  0  0
    0.9999    5.9031   54.0757 C   0  0  0  0  0
   -0.4585    5.7348   54.2840 C   0  0  0  0  0
    3.4671    8.9198   52.7340 C   0  0  0  0  0
    4.7518    8.4392   52.4428 C   0  0  0  0  0
    5.2829    8.5222   51.1466 C   0  0  0  0  0
    4.5002    9.1005   50.1245 C   0  0  0  0  0
    4.9590    9.1888   48.7192 C   0  0  0  0  0
    3.9647    9.4951   47.6453 C   0  0  0  0  0
    2.9606   10.5327   48.1477 C   0  0  0  0  0
    3.2121    9.5903   50.4227 C   0  0  0  0  0
    2.7048    9.4948   51.7186 C   0  0  0  0  0
    1.8568   10.7214   47.1607 C   0  0  0  0  0
    1.7118   11.9544   46.5168 C   0  0  0  0  0
    0.6765   12.1464   45.5973 C   0  0  0  0  0
   -0.2252   11.1054   45.3089 C   0  0  0  0  0
   -0.0729    9.8760   45.9594 C   0  0  0  0  0
    0.9607    9.6814   46.8795 C   0  0  0  0  0
   -1.5725   12.3836   43.6291 C   0  0  0  0  0
   -2.7597   12.3662   42.7356 C   0  0  0  0  0
    7.4633    7.4255   51.7345 C   0  0  0  0  0
    8.7954    6.9995   51.2316 C   0  0  0  0  0
    3.9123    8.7405   58.6210 C   0  0  0  0  0
    1.5289    8.4546   59.2622 C   0  0  0  0  0
    0.2529    9.0701   59.6389 C   0  0  0  0  0
    0.1233   10.3883   59.7126 C   0  0  0  0  0
   -1.1259   11.0483   60.1146 C   0  0  0  0  0
   -2.3000   10.3210   60.3714 C   0  0  0  0  0
   -3.4555   10.9818   60.8012 C   0  0  0  0  0
   -3.4531   12.3776   60.9801 C   0  0  0  0  0
   -2.2814   13.0971   60.7178 C   0  0  0  0  0
   -1.1257   12.4368   60.2834 C   0  0  0  0  0
   -5.8760   12.5652   61.5563 C   0  0  0  0  0
   -6.9275   13.4034   62.1939 C   0  0  0  0  0
    3.2692    4.0989   58.7759 O   0  0  0  0  0
    4.6286    5.9415   58.3707 O   0  0  0  0  0
    3.1820    8.6143   56.3163 O   0  0  0  0  0
    5.2892    5.7086   55.7171 O   0  0  0  0  0
    5.2541    3.4026   55.7498 O   0  0  0  0  0
    1.7797    6.4466   55.0943 O   0  0  0  0  0
    1.5139    5.5553   52.9807 O   0  0  0  0  0
    2.9321    8.8344   54.0217 O   0  0  0  0  0
    6.1604    8.9900   48.4049 O   0  0  0  0  0
    2.4224   10.1657   49.4217 O   0  0  0  0  0
   -1.2760   11.2420   44.3891 O   0  0  0  0  0
   -0.8601   13.4215   43.6829 O   0  0  0  0  0
    6.5647    8.0312   50.8436 O   0  0  0  0  0
    7.1741    7.2401   52.9466 O   0  0  0  0  0
    2.6043    9.2478   58.8688 O   0  0  0  0  0
    1.6478    7.2003   59.3278 O   0  0  0  0  0
   -4.5795   13.0824   61.4263 O   0  0  0  0  0
   -6.1826   11.4228   61.1220 O   0  0  0  0  0
  1  2  1  0  0  0
  2 44  1  0  0  0
  3 44  1  0  0  0
  3  4  1  0  0  0
  4 45  1  0  0  0
  4 31  1  0  0  0
  5 45  1  0  0  0
  5  6  1  0  0  0
  5 50  1  0  0  0
  6  7  1  0  0  0
  6 48  1  0  0  0
  7 46  1  0  0  0
  7  3  1  0  0  0
  8 46  1  0  0  0
  9  8  1  0  0  0
 10 48  1  0  0  0
 11 10  1  0  0  0
 12 50  1  0  0  0
 13 14  1  0  0  0
 14 55  1  0  0  0
 15 16  1  0  0  0
 17 16  1  0  0  0
 17 18  1  0  0  0
 18 52  1  0  0  0
 18 21  1  0  0  0
 19 52  1  0  0  0
 19 15  1  0  0  0
 20 12  1  0  0  0
 22 23  1  0  0  0
 24 25  1  0  0  0
 24 53  1  0  0  0
 26 21  1  0  0  0
 27 53  1  0  0  0
 28 27  1  0  0  0
 29 55  1  0  0  0
 30 29  1  0  0  0
 31 57  1  0  0  0
 32 57  1  0  0  0
 32 33  1  0  0  0
 34 35  1  0  0  0
 36 37  1  0  0  0
 38 39  1  0  0  0
 38 59  1  0  0  0
 40 35  1  0  0  0
 41 59  1  0  0  0
 42 41  1  0  0  0
  2 43  2  0  0  0
  8 47  2  0  0  0
 10 49  2  0  0  0
 12 13  2  0  0  0
 14 15  2  0  0  0
 16 51  2  0  0  0
 19 20  2  0  0  0
 21 22  2  0  0  0
 23 24  2  0  0  0
 25 26  2  0  0  0
 27 54  2  0  0  0
 29 56  2  0  0  0
 32 58  2  0  0  0
 33 34  2  0  0  0
 35 36  2  0  0  0
 37 38  2  0  0  0
 39 40  2  0  0  0
 41 60  2  0  0  0
M  END
> <rmsd>
0.841388345

$$$$
MolPort-047-919-840


 82 88  0  0  0  0  0  0  0  0999 V2000
    1.5813    8.7197   51.1854 C   0  0  0  0  0
    0.9139    8.6994   52.5474 C   0  0  0  0  0
   -0.0235    9.9002   52.7077 C   0  0  0  0  0
    0.0706   11.3724   54.7540 C   0  0  0  0  0
   -0.1598   11.5388   56.2170 C   0  0  0  0  0
   -1.3481    9.6559   51.9534 C   0  0  0  0  0
   -2.9837   10.8763   51.0263 C   0  0  0  0  0
   -4.4550   10.9289   51.4175 C   0  0  0  0  0
   -5.3447   11.2255   50.2186 C   0  0  0  0  0
   -4.6210   12.0274   49.1287 C   0  0  0  0  0
   -5.1299   11.0581   47.1836 C   0  0  0  0  0
   -5.1308    9.6269   46.6135 C   0  0  0  0  0
   -6.2963    9.4502   45.6769 C   0  0  0  0  0
   -4.4621   10.1069   44.6131 C   0  0  0  0  0
   -4.3068   11.6268   44.7810 C   0  0  0  0  0
   -4.9871   12.1289   46.0745 C   0  0  0  0  0
   -2.5915   12.1994   50.3358 C   0  0  0  0  0
   -1.3299   12.0947   49.5293 C   0  0  0  0  0
   -1.1237    7.3981   51.9413 C   0  0  0  0  0
   -1.8651    6.0649   51.9682 C   0  0  0  0  0
    0.1731    7.3644   52.7711 C   0  0  0  0  0
    1.0658    7.0071   54.8400 C   0  0  0  0  0
    0.8733    7.4273   56.2924 C   0  0  0  0  0
    2.2012    7.3454   57.0434 C   0  0  0  0  0
    2.8091    5.9360   56.9582 C   0  0  0  0  0
    4.1805    4.7846   58.4021 C   0  0  0  0  0
    3.4407    3.7573   60.3284 C   0  0  0  0  0
    4.2345    4.4794   61.4109 C   0  0  0  0  0
    4.1289    2.4539   59.8829 C   0  0  0  0  0
    4.6450    0.7581   61.2264 C   0  0  0  0  0
    5.3214   -1.6528   61.1404 C   0  0  0  0  0
    5.4057   -1.7279   62.4704 C   0  0  0  0  0
    5.2462   -0.5040   63.3130 C   0  0  0  0  0
    4.2515    0.4614   62.6786 C   0  0  0  0  0
    5.5345   -2.8542   60.3200 C   0  0  0  0  0
    3.9905    2.2699   58.3656 C   0  0  0  0  0
    4.4827    3.5106   57.6036 C   0  0  0  0  0
    6.4632    3.4726   56.0411 C   0  0  0  0  0
    7.9354    3.5525   55.8544 C   0  0  0  0  0
    2.9303    5.4557   55.4987 C   0  0  0  0  0
    1.5944    5.5695   54.7563 C   0  0  0  0  0
    2.0014    7.7743   58.4646 C   0  0  0  0  0
   -0.2746   10.1397   54.1215 N   0  0  0  0  0
   -2.8945   11.9828   44.7711 N   0  0  0  0  0
    5.9183    3.4487   57.3623 N   0  0  0  0  0
    0.5779   12.3160   54.0867 O   0  0  0  0  0
   -2.2157   10.7280   52.1889 O   0  0  0  0  0
   -4.8509    9.7243   52.0002 O   0  0  0  0  0
   -6.4683   11.9268   50.6516 O   0  0  0  0  0
   -4.1036   11.1916   48.1271 O   0  0  0  0  0
   -5.8179    9.7946   44.4061 O   0  0  0  0  0
   -4.0226    9.4787   45.7867 O   0  0  0  0  0
   -1.2929   13.7750   43.3461 O   0  0  0  0  0
   -2.7050   14.5441   45.3881 O   0  0  0  0  0
   -3.8693   13.9952   43.3007 O   0  0  0  0  0
   -6.2432   12.6530   45.7632 O   0  0  0  0  0
   -3.6268   12.8957   49.6474 O   0  0  0  0  0
   -0.1106   12.3607   50.1366 O   0  0  0  0  0
   -1.3633   11.7859   48.3068 O   0  0  0  0  0
   -1.9539    8.4507   52.3747 O   0  0  0  0  0
   -2.4821    5.8749   53.2032 O   0  0  0  0  0
   -0.1411    7.1730   54.1354 O   0  0  0  0  0
    4.0723    5.9281   57.5764 O   0  0  0  0  0
    3.0738    4.6268   59.2688 O   0  0  0  0  0
    3.4708    5.5236   61.9427 O   0  0  0  0  0
    5.1639    5.1377   64.1030 O   0  0  0  0  0
    2.7307    4.1921   64.0663 O   0  0  0  0  0
    3.0355    6.6158   64.2628 O   0  0  0  0  0
    3.5709    1.3662   60.5667 O   0  0  0  0  0
    5.0223   -0.4298   60.5161 O   0  0  0  0  0
    4.8059   -0.8756   64.5820 O   0  0  0  0  0
    4.2226    1.6523   63.4050 O   0  0  0  0  0
    5.8054   -4.0790   60.9135 O   0  0  0  0  0
    5.4715   -2.7775   59.0634 O   0  0  0  0  0
    4.6460    1.1149   57.9294 O   0  0  0  0  0
    5.7077    3.4277   55.0321 O   0  0  0  0  0
    3.9107    6.1841   54.8149 O   0  0  0  0  0
    0.6714    4.6675   55.2843 O   0  0  0  0  0
    2.6755    8.8993   58.9427 O   0  0  0  0  0
    1.2231    7.1351   59.2279 O   0  0  0  0  0
   -2.7267   13.6185   44.2063 S   0  0  0  0  0
    3.5652    5.3622   63.6195 S   0  0  0  0  0
  1  2  1  0  0  0
  2  3  1  0  0  0
  3 43  1  0  0  0
  3  6  1  0  0  0
  5  4  1  0  0  0
  6 47  1  0  0  0
  6 60  1  0  0  0
  7 47  1  0  0  0
  7  8  1  0  0  0
  8 48  1  0  0  0
  8  9  1  0  0  0
  9 49  1  0  0  0
  9 10  1  0  0  0
 10 50  1  0  0  0
 10 57  1  0  0  0
 11 50  1  0  0  0
 11 12  1  0  0  0
 12 13  1  0  0  0
 12 52  1  0  0  0
 13 51  1  0  0  0
 14 51  1  0  0  0
 14 52  1  0  0  0
 14 15  1  0  0  0
 15 44  1  0  0  0
 15 16  1  0  0  0
 16 56  1  0  0  0
 16 11  1  0  0  0
 17 57  1  0  0  0
 17 18  1  0  0  0
 17  7  1  0  0  0
 18 58  1  0  0  0
 19 60  1  0  0  0
 19 20  1  0  0  0
 19 21  1  0  0  0
 20 61  1  0  0  0
 21 62  1  0  0  0
 21  2  1  0  0  0
 22 62  1  0  0  0
 22 23  1  0  0  0
 23 24  1  0  0  0
 24 25  1  0  0  0
 24 42  1  0  0  0
 25 63  1  0  0  0
 25 40  1  0  0  0
 26 63  1  0  0  0
 26 64  1  0  0  0
 27 64  1  0  0  0
 27 28  1  0  0  0
 27 29  1  0  0  0
 28 65  1  0  0  0
 29 69  1  0  0  0
 29 36  1  0  0  0
 30 69  1  0  0  0
 30 70  1  0  0  0
 31 70  1  0  0  0
 31 35  1  0  0  0
 33 32  1  0  0  0
 33 71  1  0  0  0
 33 34  1  0  0  0
 34 72  1  0  0  0
 34 30  1  0  0  0
 35 73  1  0  0  0
 36 75  1  0  0  0
 36 37  1  0  0  0
 37 45  1  0  0  0
 37 26  1  0  0  0
 39 38  1  0  0  0
 40 77  1  0  0  0
 40 41  1  0  0  0
 41 78  1  0  0  0
 41 22  1  0  0  0
 42 79  1  0  0  0
 43  4  1  0  0  0
 45 38  1  0  0  0
 81 44  1  0  0  0
 81 53  1  0  0  0
 82 65  1  0  0  0
 82 66  1  0  0  0
  4 46  2  0  0  0
 18 59  2  0  0  0
 31 32  2  0  0  0
 35 74  2  0  0  0
 38 76  2  0  0  0
 42 80  2  0  0  0
 81 54  2  0  0  0
 81 55  2  0  0  0
 82 67  2  0  0  0
 82 68  2  0  0  0
M  CHG  4  53  -1  58  -1  73  -1  79  -1
M  END
> <rmsd>
0.690272093

$$$$
MolPort-047-582-028


 89 95  0  0  0  0  0  0  0  0999 V2000
    7.5799    0.6147   59.7671 C   0  0  0  0  0
    6.3653   -0.0858   59.1827 C   0  0  0  0  0
    6.1021    0.4051   57.7646 C   0  0  0  0  0
    5.6134    1.8242   57.7227 C   0  0  0  0  0
    7.7047    2.5311   56.5181 C   0  0  0  0  0
    8.6004    3.7541   56.6777 C   0  0  0  0  0
    7.9600    4.9457   55.9805 C   0  0  0  0  0
    6.5909    5.2573   56.5881 C   0  0  0  0  0
    5.6685    4.0372   56.5599 C   0  0  0  0  0
    5.0667    3.8275   55.2064 C   0  0  0  0  0
    3.0339    3.7496   53.8052 C   0  0  0  0  0
    1.8852    4.7390   53.5985 C   0  0  0  0  0
    0.8026    4.6657   54.6739 C   0  0  0  0  0
    1.2447    5.2725   55.9624 C   0  0  0  0  0
    1.3707    4.4730   57.0994 C   0  0  0  0  0
    1.7974    5.0275   58.3168 C   0  0  0  0  0
    1.6460    2.8504   59.4758 C   0  0  0  0  0
    2.1065    6.3927   58.3858 C   0  0  0  0  0
    2.8462    8.3109   59.7527 C   0  0  0  0  0
    1.9760    7.1910   57.2395 C   0  0  0  0  0
    1.5424    6.6340   56.0353 C   0  0  0  0  0
    2.6273    2.3089   53.6433 C   0  0  0  0  0
    1.7083    1.7240   54.5277 C   0  0  0  0  0
    1.3027    0.3979   54.3550 C   0  0  0  0  0
    1.8122   -0.3516   53.2954 C   0  0  0  0  0
    2.7460    0.2142   52.4246 C   0  0  0  0  0
    3.1689    1.5409   52.5961 C   0  0  0  0  0
    4.6246    1.4626   50.5785 C   0  0  0  0  0
    3.6523    1.5790   49.4553 C   0  0  0  0  0
    2.0945    2.9985   48.0810 C   0  0  0  0  0
    1.4197    4.3523   48.1932 C   0  0  0  0  0
    2.3455    5.4603   47.7291 C   0  0  0  0  0
    2.2919    5.5812   46.2132 C   0  0  0  0  0
    2.8529    6.9296   45.7969 C   0  0  0  0  0
    2.5085    7.2327   44.3426 C   0  0  0  0  0
    1.0503    7.5328   44.1350 C   0  0  0  0  0
   -0.8032    7.9633   42.3831 C   0  0  0  0  0
   -1.5615    9.0208   43.1409 C   0  0  0  0  0
   -2.0719   11.4813   43.3753 C   0  0  0  0  0
   -2.0530   12.6620   42.4228 C   0  0  0  0  0
   -1.3403   12.1825   41.1669 C   0  0  0  0  0
   -1.4381   10.6621   41.1879 C   0  0  0  0  0
   -2.5435   10.2107   40.2763 C   0  0  0  0  0
   -3.4290   10.0085   37.9059 C   0  0  0  0  0
   -4.6702   10.8776   38.0893 C   0  0  0  0  0
   -2.9161   10.1228   36.5038 C   0  0  0  0  0
   -2.5106   11.3577   35.9838 C   0  0  0  0  0
   -2.0442   11.4467   34.6675 C   0  0  0  0  0
   -1.9831   10.3081   33.8518 C   0  0  0  0  0
   -2.4053    9.0804   34.3788 C   0  0  0  0  0
   -2.8637    8.9862   35.6976 C   0  0  0  0  0
   -1.5242   10.4327   32.4490 C   0  0  0  0  0
   -1.2831    9.4145   31.5163 C   0  0  0  0  0
   -1.4630    7.9604   31.7906 C   0  0  0  0  0
   -0.7698   11.1947   30.2027 C   0  0  0  0  0
   -1.5140    6.6030   42.2057 C   0  0  0  0  0
   -2.8557    6.7980   41.5247 C   0  0  0  0  0
   -0.6760    5.6963   41.3154 C   0  0  0  0  0
   -1.7437    5.8996   43.5334 C   0  0  0  0  0
    5.1889   -0.5094   57.0054 C   0  0  0  0  0
    5.5106   -0.8714   55.6973 C   0  0  0  0  0
    4.6619   -1.7051   54.9568 C   0  0  0  0  0
    6.0941   -1.5444   52.9444 C   0  0  0  0  0
    3.4755   -2.1914   55.5331 C   0  0  0  0  0
    1.5611   -3.7784   55.2366 C   0  0  0  0  0
    3.1223   -1.7906   56.8482 C   0  0  0  0  0
    1.5274   -1.8552   58.7439 C   0  0  0  0  0
    3.9924   -0.9568   57.5657 C   0  0  0  0  0
    4.5271    2.1268   58.2900 O   0  0  0  0  0
    5.7991    3.5137   54.2268 O   0  0  0  0  0
    3.6881    3.9743   55.0485 O   0  0  0  0  0
    1.9227    4.2403   59.4660 O   0  0  0  0  0
    2.5555    6.9263   59.5946 O   0  0  0  0  0
    4.1201    2.1154   51.7388 O   0  0  0  0  0
    3.3590    0.5581   48.7812 O   0  0  0  0  0
    0.2408    7.5054   45.1029 O   0  0  0  0  0
   -2.0331    8.7696   44.2830 O   0  0  0  0  0
   -1.3419   13.7156   43.0005 O   0  0  0  0  0
   -3.5952    9.7007   40.7431 O   0  0  0  0  0
    4.9693   -2.0577   53.6371 O   0  0  0  0  0
    2.6821   -3.0478   54.7523 O   0  0  0  0  0
    1.9151   -2.2111   57.4272 O   0  0  0  0  0
    6.3600    2.8276   57.0198 N   0  0  0  0  0
    3.0699    2.8440   49.1467 N   0  0  0  0  0
    0.5943    7.8472   42.8162 N   0  0  0  0  0
   -1.7349   10.3246   42.5702 N   0  0  0  0  0
   -2.3888   10.3756   38.8626 N   0  0  0  0  0
   -0.8680    9.8473   30.2938 N   0  0  0  0  0
   -1.1837   11.8864   31.6724 S   0  0  0  0  0
  1  2  1  0  0  0
  3  2  1  0  0  0
  3  4  1  0  0  0
  3 60  1  0  0  0
  4 83  1  0  0  0
  5 83  1  0  0  0
  5  6  1  0  0  0
  6  7  1  0  0  0
  7  8  1  0  0  0
  8  9  1  0  0  0
  9 10  1  0  0  0
  9 83  1  0  0  0
 10 71  1  0  0  0
 11 71  1  0  0  0
 11 12  1  0  0  0
 11 22  1  0  0  0
 12 13  1  0  0  0
 13 14  1  0  0  0
 15 16  1  0  0  0
 16 72  1  0  0  0
 17 72  1  0  0  0
 18 73  1  0  0  0
 18 20  1  0  0  0
 19 73  1  0  0  0
 21 14  1  0  0  0
 23 24  1  0  0  0
 25 26  1  0  0  0
 27 74  1  0  0  0
 27 22  1  0  0  0
 28 74  1  0  0  0
 28 29  1  0  0  0
 29 84  1  0  0  0
 30 84  1  0  0  0
 30 31  1  0  0  0
 31 32  1  0  0  0
 32 33  1  0  0  0
 33 34  1  0  0  0
 34 35  1  0  0  0
 35 36  1  0  0  0
 36 85  1  0  0  0
 37 85  1  0  0  0
 37 38  1  0  0  0
 37 56  1  0  0  0
 38 86  1  0  0  0
 39 86  1  0  0  0
 39 40  1  0  0  0
 40 78  1  0  0  0
 40 41  1  0  0  0
 41 42  1  0  0  0
 42 43  1  0  0  0
 42 86  1  0  0  0
 43 87  1  0  0  0
 44 87  1  0  0  0
 44 45  1  0  0  0
 44 46  1  0  0  0
 47 48  1  0  0  0
 49 50  1  0  0  0
 49 52  1  0  0  0
 51 46  1  0  0  0
 52 89  1  0  0  0
 53 88  1  0  0  0
 54 53  1  0  0  0
 55 89  1  0  0  0
 56 57  1  0  0  0
 56 58  1  0  0  0
 56 59  1  0  0  0
 61 62  1  0  0  0
 62 80  1  0  0  0
 63 80  1  0  0  0
 64 81  1  0  0  0
 64 66  1  0  0  0
 65 81  1  0  0  0
 66 82  1  0  0  0
 67 82  1  0  0  0
 68 60  1  0  0  0
  4 69  2  0  0  0
 10 70  2  0  0  0
 14 15  2  0  0  0
 16 18  2  0  0  0
 20 21  2  0  0  0
 22 23  2  0  0  0
 24 25  2  0  0  0
 26 27  2  0  0  0
 29 75  2  0  0  0
 36 76  2  0  0  0
 38 77  2  0  0  0
 43 79  2  0  0  0
 46 47  2  0  0  0
 48 49  2  0  0  0
 50 51  2  0  0  0
 52 53  2  0  0  0
 55 88  2  0  0  0
 60 61  2  0  0  0
 62 64  2  0  0  0
 66 68  2  0  0  0
M  END
> <rmsd>
0.664895833

$$$$
MolPort-000-757-107 LN01791272 PubChem-44661022


 83 92  0  0  0  0  0  0  0  0999 V2000
    8.6730    3.9098   55.9518 C   0  0  0  0  0
    7.1573    3.9445   55.9811 C   0  0  0  0  0
    5.3331    4.6761   54.8219 C   0  0  0  0  0
    5.3945    3.7144   52.8016 C   0  0  0  0  0
    6.1623    2.4998   52.2682 C   0  0  0  0  0
    5.2498    1.2781   52.0913 C   0  0  0  0  0
    3.9665    1.6892   51.3445 C   0  0  0  0  0
    4.1541    3.8494   51.9072 C   0  0  0  0  0
    2.7775    5.2923   53.0979 C   0  0  0  0  0
    1.3388    4.7900   52.9401 C   0  0  0  0  0
    0.6077    5.5855   51.8644 C   0  0  0  0  0
    0.5593    7.0899   52.1696 C   0  0  0  0  0
   -0.4041    7.2723   53.3412 C   0  0  0  0  0
    1.9762    7.6307   52.4984 C   0  0  0  0  0
    2.0217    9.1435   52.7990 C   0  0  0  0  0
    0.7701    9.9101   52.3602 C   0  0  0  0  0
    0.1761    9.4454   51.0185 C   0  0  0  0  0
   -1.2442    9.9957   50.9991 C   0  0  0  0  0
    0.0051    7.8842   50.9522 C   0  0  0  0  0
    0.3665    7.2694   49.5784 C   0  0  0  0  0
    0.0717    8.1920   48.4310 C   0  0  0  0  0
    0.4040    9.4864   48.5075 C   0  0  0  0  0
    0.1723   10.4422   47.3581 C   0  0  0  0  0
   -0.3350    9.8208   46.0417 C   0  0  0  0  0
   -1.8614    9.8134   45.8976 C   0  0  0  0  0
   -2.4890    8.7190   46.7421 C   0  0  0  0  0
   -2.1939    9.5344   44.4475 C   0  0  0  0  0
   -2.4659   11.1642   46.2626 C   0  0  0  0  0
   -2.0399   11.6185   47.6545 C   0  0  0  0  0
   -0.5190   11.7748   47.7615 C   0  0  0  0  0
   -0.2171   12.1786   49.2196 C   0  0  0  0  0
    1.0572   11.5495   49.7828 C   0  0  0  0  0
    0.9993   10.0112   49.7986 C   0  0  0  0  0
    2.4500    9.5485   49.8513 C   0  0  0  0  0
   -0.0650   12.8907   46.8507 C   0  0  0  0  0
    0.9835   13.3588   44.6737 C   0  0  0  0  0
    2.3772   14.2140   43.0172 C   0  0  0  0  0
    2.1822   15.7262   43.1844 C   0  0  0  0  0
    0.1608   16.7668   42.8532 C   0  0  0  0  0
   -1.2582   16.6690   41.1225 C   0  0  0  0  0
   -1.8411   15.7755   40.0390 C   0  0  0  0  0
   -0.8725   18.0342   40.5356 C   0  0  0  0  0
    0.4692   18.5624   41.0774 C   0  0  0  0  0
    0.7366   18.1579   42.5317 C   0  0  0  0  0
    1.5323   13.6171   41.8850 C   0  0  0  0  0
    0.7976   12.3603   42.3452 C   0  0  0  0  0
    0.0783   12.6174   43.6743 C   0  0  0  0  0
    2.7946    6.7873   53.5012 C   0  0  0  0  0
    2.2570    6.9546   54.9193 C   0  0  0  0  0
    4.2358    7.2866   53.4984 C   0  0  0  0  0
    4.4824    4.8502   56.0986 C   0  0  0  0  0
    5.1335    4.3544   57.3931 C   0  0  0  0  0
    3.9232    4.3481   59.2878 C   0  0  0  0  0
    2.0405    5.6131   58.8831 C   0  0  0  0  0
    1.9624    6.1545   60.3077 C   0  0  0  0  0
    3.3583    6.1697   60.9200 C   0  0  0  0  0
    4.0376    4.8151   60.7443 C   0  0  0  0  0
    6.6600    4.4064   57.3521 C   0  0  0  0  0
    6.7198    4.8642   55.0156 O   0  0  0  0  0
    5.0474    3.4794   54.1410 O   0  0  0  0  0
    7.2549    2.1907   53.0804 O   0  0  0  0  0
    4.9267    0.6976   53.3207 O   0  0  0  0  0
    3.2965    2.7361   52.0068 O   0  0  0  0  0
    3.4894    5.0993   51.8951 O   0  0  0  0  0
   -0.6204   14.0220   46.9179 O   0  0  0  0  0
    0.9512   12.6692   45.9139 O   0  0  0  0  0
    2.3244   13.4788   44.2333 O   0  0  0  0  0
    0.9391   16.0253   43.7633 O   0  0  0  0  0
   -0.1459   16.0303   41.6961 O   0  0  0  0  0
   -3.0882   16.2600   39.6438 O   0  0  0  0  0
   -1.8868   18.9551   40.8059 O   0  0  0  0  0
    1.5118   18.1113   40.2649 O   0  0  0  0  0
    0.1868   19.1019   43.3990 O   0  0  0  0  0
    2.3681   13.2973   40.8129 O   0  0  0  0  0
   -0.1116   11.9510   41.3595 O   0  0  0  0  0
   -1.0792   13.3756   43.4688 O   0  0  0  0  0
    3.2426    4.2200   55.9466 O   0  0  0  0  0
    4.6837    5.1675   58.4385 O   0  0  0  0  0
    2.5677    4.3046   58.8835 O   0  0  0  0  0
    1.4388    7.4486   60.2812 O   0  0  0  0  0
    3.2786    6.4859   62.2807 O   0  0  0  0  0
    5.3766    4.9060   61.1124 O   0  0  0  0  0
    7.1692    3.5822   58.3629 O   0  0  0  0  0
  1  2  1  0  0  0
  2 59  1  0  0  0
  3 59  1  0  0  0
  3 60  1  0  0  0
  3 51  1  0  0  0
  4 60  1  0  0  0
  4  5  1  0  0  0
  5 61  1  0  0  0
  5  6  1  0  0  0
  6 62  1  0  0  0
  6  7  1  0  0  0
  7 63  1  0  0  0
  8 63  1  0  0  0
  8 64  1  0  0  0
  8  4  1  0  0  0
  9 64  1  0  0  0
  9 10  1  0  0  0
 10 11  1  0  0  0
 11 12  1  0  0  0
 12 13  1  0  0  0
 12 14  1  0  0  0
 14 15  1  0  0  0
 14 48  1  0  0  0
 15 16  1  0  0  0
 16 17  1  0  0  0
 17 18  1  0  0  0
 17 19  1  0  0  0
 19 20  1  0  0  0
 19 12  1  0  0  0
 20 21  1  0  0  0
 23 22  1  0  0  0
 23 24  1  0  0  0
 24 25  1  0  0  0
 25 26  1  0  0  0
 25 27  1  0  0  0
 25 28  1  0  0  0
 28 29  1  0  0  0
 29 30  1  0  0  0
 30 31  1  0  0  0
 30 35  1  0  0  0
 30 23  1  0  0  0
 31 32  1  0  0  0
 32 33  1  0  0  0
 33 34  1  0  0  0
 33 22  1  0  0  0
 33 17  1  0  0  0
 35 66  1  0  0  0
 36 66  1  0  0  0
 36 67  1  0  0  0
 37 67  1  0  0  0
 37 38  1  0  0  0
 37 45  1  0  0  0
 38 68  1  0  0  0
 39 68  1  0  0  0
 39 69  1  0  0  0
 40 69  1  0  0  0
 40 41  1  0  0  0
 40 42  1  0  0  0
 41 70  1  0  0  0
 42 71  1  0  0  0
 42 43  1  0  0  0
 43 72  1  0  0  0
 43 44  1  0  0  0
 44 73  1  0  0  0
 44 39  1  0  0  0
 45 74  1  0  0  0
 45 46  1  0  0  0
 46 75  1  0  0  0
 46 47  1  0  0  0
 47 76  1  0  0  0
 47 36  1  0  0  0
 48 49  1  0  0  0
 48 50  1  0  0  0
 48  9  1  0  0  0
 51 77  1  0  0  0
 51 52  1  0  0  0
 52 78  1  0  0  0
 52 58  1  0  0  0
 53 78  1  0  0  0
 53 79  1  0  0  0
 54 79  1  0  0  0
 54 55  1  0  0  0
 55 80  1  0  0  0
 55 56  1  0  0  0
 56 81  1  0  0  0
 56 57  1  0  0  0
 57 82  1  0  0  0
 57 53  1  0  0  0
 58 83  1  0  0  0
 58  2  1  0  0  0
 21 22  2  0  0  0
 35 65  2  0  0  0
M  END
> <rmsd>
0.769743204

$$$$
MolPort-000-757-107 LN01791272 PubChem-44661022


 83 92  0  0  0  0  0  0  0  0999 V2000
    8.6768    4.1218   55.8514 C   0  0  0  0  0
    7.1725    3.9964   55.9962 C   0  0  0  0  0
    5.2037    4.3778   54.9078 C   0  0  0  0  0
    5.2442    3.1853   53.0140 C   0  0  0  0  0
    6.1118    2.0037   52.5659 C   0  0  0  0  0
    5.3381    0.6784   52.6043 C   0  0  0  0  0
    3.9696    0.8531   51.9187 C   0  0  0  0  0
    3.9408    3.0738   52.2107 C   0  0  0  0  0
    2.4863    4.4966   53.3312 C   0  0  0  0  0
    1.1087    3.8265   53.3468 C   0  0  0  0  0
    0.2212    4.3991   52.2474 C   0  0  0  0  0
    0.0180    5.9157   52.3791 C   0  0  0  0  0
   -0.8815    6.1371   53.5941 C   0  0  0  0  0
    1.3806    6.6425   52.5301 C   0  0  0  0  0
    1.2693    8.1769   52.6489 C   0  0  0  0  0
   -0.0891    8.7439   52.2245 C   0  0  0  0  0
   -0.7115    8.0551   50.9968 C   0  0  0  0  0
   -2.1844    8.4425   51.0260 C   0  0  0  0  0
   -0.7035    6.4885   51.1255 C   0  0  0  0  0
   -0.3637    5.7506   49.8079 C   0  0  0  0  0
   -0.8383    6.4866   48.5883 C   0  0  0  0  0
   -0.6547    7.8087   48.4878 C   0  0  0  0  0
   -1.0709    8.5840   47.2574 C   0  0  0  0  0
   -1.5874    7.7532   46.0660 C   0  0  0  0  0
   -3.1087    7.5636   46.0448 C   0  0  0  0  0
   -3.5480    6.5212   47.0573 C   0  0  0  0  0
   -3.5006    7.0727   44.6676 C   0  0  0  0  0
   -3.8412    8.8762   46.2975 C   0  0  0  0  0
   -3.3809    9.5428   47.5893 C   0  0  0  0  0
   -1.8847    9.8741   47.5570 C   0  0  0  0  0
   -1.5371   10.4857   48.9301 C   0  0  0  0  0
   -0.1642   10.0723   49.4600 C   0  0  0  0  0
   -0.0414    8.5507   49.6584 C   0  0  0  0  0
    1.4536    8.2571   49.6495 C   0  0  0  0  0
   -1.6244   10.9109   46.4900 C   0  0  0  0  0
   -0.7823   11.2155   44.1975 C   0  0  0  0  0
    0.3910   12.0039   42.3483 C   0  0  0  0  0
    0.0325   13.4952   42.3540 C   0  0  0  0  0
   -2.1136   14.2629   42.0653 C   0  0  0  0  0
   -3.6218   13.7990   40.4751 C   0  0  0  0  0
   -4.1663   12.7204   39.5518 C   0  0  0  0  0
   -3.4369   15.1144   39.7054 C   0  0  0  0  0
   -2.1334   15.8472   40.0746 C   0  0  0  0  0
   -1.7261   15.6572   41.5402 C   0  0  0  0  0
   -0.4509   11.1836   41.3631 C   0  0  0  0  0
   -1.0026    9.9219   42.0224 C   0  0  0  0  0
   -1.6584   10.2628   43.3654 C   0  0  0  0  0
    2.3556    6.0231   53.5561 C   0  0  0  0  0
    1.8961    6.3060   54.9832 C   0  0  0  0  0
    3.7255    6.6705   53.3816 C   0  0  0  0  0
    4.4238    4.6162   56.2189 C   0  0  0  0  0
    5.2115    4.3578   57.5066 C   0  0  0  0  0
    4.1368    4.4562   59.4789 C   0  0  0  0  0
    2.0972    5.4509   59.0803 C   0  0  0  0  0
    2.0499    6.1532   60.4344 C   0  0  0  0  0
    3.4716    6.3945   60.9286 C   0  0  0  0  0
    4.2911    5.1097   60.8578 C   0  0  0  0  0
    6.7156    4.5684   57.3393 C   0  0  0  0  0
    6.5687    4.7367   54.9681 O   0  0  0  0  0
    5.0153    3.0821   54.3948 O   0  0  0  0  0
    7.2837    1.9172   53.3196 O   0  0  0  0  0
    5.1660    0.2234   53.9143 O   0  0  0  0  0
    3.2270    1.8957   52.5061 O   0  0  0  0  0
    3.1357    4.2337   52.1065 O   0  0  0  0  0
   -2.3022   11.9752   46.4695 O   0  0  0  0  0
   -0.6528   10.6857   45.5079 O   0  0  0  0  0
    0.5039   11.4238   43.6417 O   0  0  0  0  0
   -1.1964   13.7282   42.9907 O   0  0  0  0  0
   -2.4075   13.3599   41.0291 O   0  0  0  0  0
   -5.4845   13.0150   39.2029 O   0  0  0  0  0
   -4.5318   15.9470   39.9464 O   0  0  0  0  0
   -1.1008   15.4138   39.2400 O   0  0  0  0  0
   -2.3241   16.6368   42.3331 O   0  0  0  0  0
    0.3444   10.8253   40.2727 O   0  0  0  0  0
   -1.9205    9.2979   41.1657 O   0  0  0  0  0
   -2.9073   10.8605   43.1656 O   0  0  0  0  0
    3.2586    3.8421   56.2393 O   0  0  0  0  0
    4.7395    5.2411   58.4830 O   0  0  0  0  0
    2.7721    4.2171   59.1907 O   0  0  0  0  0
    1.3786    7.3700   60.2996 O   0  0  0  0  0
    3.4448    6.8665   62.2455 O   0  0  0  0  0
    5.6316    5.3892   61.1060 O   0  0  0  0  0
    7.3824    3.9356   58.3954 O   0  0  0  0  0
  1  2  1  0  0  0
  2 59  1  0  0  0
  3 59  1  0  0  0
  3 60  1  0  0  0
  3 51  1  0  0  0
  4 60  1  0  0  0
  4  5  1  0  0  0
  5 61  1  0  0  0
  5  6  1  0  0  0
  6 62  1  0  0  0
  6  7  1  0  0  0
  7 63  1  0  0  0
  8 63  1  0  0  0
  8 64  1  0  0  0
  8  4  1  0  0  0
  9 64  1  0  0  0
  9 10  1  0  0  0
 10 11  1  0  0  0
 11 12  1  0  0  0
 12 13  1  0  0  0
 12 14  1  0  0  0
 14 15  1  0  0  0
 14 48  1  0  0  0
 15 16  1  0  0  0
 16 17  1  0  0  0
 17 18  1  0  0  0
 17 19  1  0  0  0
 19 20  1  0  0  0
 19 12  1  0  0  0
 20 21  1  0  0  0
 23 22  1  0  0  0
 23 24  1  0  0  0
 24 25  1  0  0  0
 25 26  1  0  0  0
 25 27  1  0  0  0
 25 28  1  0  0  0
 28 29  1  0  0  0
 29 30  1  0  0  0
 30 31  1  0  0  0
 30 35  1  0  0  0
 30 23  1  0  0  0
 31 32  1  0  0  0
 32 33  1  0  0  0
 33 34  1  0  0  0
 33 22  1  0  0  0
 33 17  1  0  0  0
 35 66  1  0  0  0
 36 66  1  0  0  0
 36 67  1  0  0  0
 37 67  1  0  0  0
 37 38  1  0  0  0
 37 45  1  0  0  0
 38 68  1  0  0  0
 39 68  1  0  0  0
 39 69  1  0  0  0
 40 69  1  0  0  0
 40 41  1  0  0  0
 40 42  1  0  0  0
 41 70  1  0  0  0
 42 71  1  0  0  0
 42 43  1  0  0  0
 43 72  1  0  0  0
 43 44  1  0  0  0
 44 73  1  0  0  0
 44 39  1  0  0  0
 45 74  1  0  0  0
 45 46  1  0  0  0
 46 75  1  0  0  0
 46 47  1  0  0  0
 47 76  1  0  0  0
 47 36  1  0  0  0
 48 49  1  0  0  0
 48 50  1  0  0  0
 48  9  1  0  0  0
 51 77  1  0  0  0
 51 52  1  0  0  0
 52 78  1  0  0  0
 52 58  1  0  0  0
 53 78  1  0  0  0
 53 79  1  0  0  0
 54 79  1  0  0  0
 54 55  1  0  0  0
 55 80  1  0  0  0
 55 56  1  0  0  0
 56 81  1  0  0  0
 56 57  1  0  0  0
 57 82  1  0  0  0
 57 53  1  0  0  0
 58 83  1  0  0  0
 58  2  1  0  0  0
 21 22  2  0  0  0
 35 65  2  0  0  0
M  END
> <rmsd>
0.612704277

$$$$
MolPort-000-757-107 LN01791272 PubChem-44661022


 83 92  0  0  0  0  0  0  0  0999 V2000
    8.0800    3.2521   55.5484 C   0  0  0  0  0
    6.5810    3.3033   55.7717 C   0  0  0  0  0
    4.6137    3.8884   54.7747 C   0  0  0  0  0
    4.4181    2.6639   52.9111 C   0  0  0  0  0
    5.1205    1.3822   52.4492 C   0  0  0  0  0
    4.2039    0.1557   52.5591 C   0  0  0  0  0
    2.8299    0.4739   51.9390 C   0  0  0  0  0
    3.0699    2.6883   52.1774 C   0  0  0  0  0
    1.8483    4.2896   53.3344 C   0  0  0  0  0
    0.4060    3.7830   53.4357 C   0  0  0  0  0
   -0.4673    4.4332   52.3685 C   0  0  0  0  0
   -0.4891    5.9653   52.4730 C   0  0  0  0  0
   -1.2920    6.3114   53.7259 C   0  0  0  0  0
    0.9536    6.5332   52.5373 C   0  0  0  0  0
    1.0242    8.0722   52.6237 C   0  0  0  0  0
   -0.2812    8.7837   52.2544 C   0  0  0  0  0
   -1.0419    8.1483   51.0769 C   0  0  0  0  0
   -2.4575    8.7031   51.1706 C   0  0  0  0  0
   -1.2057    6.5939   51.2435 C   0  0  0  0  0
   -1.0223    5.7973   49.9291 C   0  0  0  0  0
   -1.4736    6.5601   48.7171 C   0  0  0  0  0
   -1.1461    7.8502   48.5751 C   0  0  0  0  0
   -1.5356    8.6452   47.3484 C   0  0  0  0  0
   -2.2056    7.8572   46.2053 C   0  0  0  0  0
   -3.7376    7.8436   46.2653 C   0  0  0  0  0
   -4.2387    6.8777   47.3240 C   0  0  0  0  0
   -4.2550    7.3754   44.9221 C   0  0  0  0  0
   -4.3013    9.2362   46.5221 C   0  0  0  0  0
   -3.7005    9.8695   47.7724 C   0  0  0  0  0
   -2.1802   10.0257   47.6567 C   0  0  0  0  0
   -1.6931   10.6188   48.9951 C   0  0  0  0  0
   -0.3502   10.0601   49.4653 C   0  0  0  0  0
   -0.3913    8.5384   49.6946 C   0  0  0  0  0
    1.0579    8.0746   49.6178 C   0  0  0  0  0
   -1.8600   11.0055   46.5528 C   0  0  0  0  0
   -1.1109   11.1683   44.2141 C   0  0  0  0  0
    0.0453   11.7817   42.2893 C   0  0  0  0  0
   -0.1401   13.3043   42.2764 C   0  0  0  0  0
   -2.1970   14.3083   42.0771 C   0  0  0  0  0
   -3.8300   13.9914   40.5767 C   0  0  0  0  0
   -4.5419   12.9657   39.7088 C   0  0  0  0  0
   -3.5373   15.2622   39.7665 C   0  0  0  0  0
   -2.1411   15.8469   40.0516 C   0  0  0  0  0
   -1.6813   15.6387   41.4991 C   0  0  0  0  0
   -0.9354   11.0456   41.3682 C   0  0  0  0  0
   -1.5917    9.8683   42.0853 C   0  0  0  0  0
   -2.1326   10.3074   43.4508 C   0  0  0  0  0
    1.9044    5.8250   53.5279 C   0  0  0  0  0
    1.5561    6.1855   54.9689 C   0  0  0  0  0
    3.3281    6.3071   53.2688 C   0  0  0  0  0
    3.9364    4.2394   56.1171 C   0  0  0  0  0
    4.7564    3.9161   57.3695 C   0  0  0  0  0
    3.8056    4.1744   59.3904 C   0  0  0  0  0
    1.8744    5.3896   59.0705 C   0  0  0  0  0
    1.9790    6.1179   60.4075 C   0  0  0  0  0
    3.4430    6.2031   60.8235 C   0  0  0  0  0
    4.1059    4.8315   60.7433 C   0  0  0  0  0
    6.2638    3.9491   57.1217 C   0  0  0  0  0
    6.0120    4.0889   54.7575 O   0  0  0  0  0
    4.2521    2.6136   54.3038 O   0  0  0  0  0
    6.3130    1.1755   53.1449 O   0  0  0  0  0
    4.0504   -0.2519   53.8869 O   0  0  0  0  0
    2.2431    1.6058   52.5372 O   0  0  0  0  0
    2.3978    3.9310   52.0853 O   0  0  0  0  0
   -2.4123   12.1402   46.5402 O   0  0  0  0  0
   -0.9737   10.6517   45.5289 O   0  0  0  0  0
    0.1595   11.2168   43.5893 O   0  0  0  0  0
   -1.2991   13.6890   42.9682 O   0  0  0  0  0
   -2.6461   13.4259   41.0796 O   0  0  0  0  0
   -5.8345   13.4034   39.4195 O   0  0  0  0  0
   -4.5159   16.2197   40.0418 O   0  0  0  0  0
   -1.2101   15.2820   39.1771 O   0  0  0  0  0
   -2.1210   16.6952   42.2967 O   0  0  0  0  0
   -0.2448   10.5778   40.2483 O   0  0  0  0  0
   -2.6187    9.3382   41.2914 O   0  0  0  0  0
   -3.3141   11.0411   43.2994 O   0  0  0  0  0
    2.6933    3.6050   56.2151 O   0  0  0  0  0
    4.4403    4.8659   58.3464 O   0  0  0  0  0
    2.4092    4.0886   59.1772 O   0  0  0  0  0
    1.4446    7.4011   60.2768 O   0  0  0  0  0
    3.5398    6.6996   62.1281 O   0  0  0  0  0
    5.4808    4.9594   60.9168 O   0  0  0  0  0
    6.9089    3.2636   58.1581 O   0  0  0  0  0
  1  2  1  0  0  0
  2 59  1  0  0  0
  3 59  1  0  0  0
  3 60  1  0  0  0
  3 51  1  0  0  0
  4 60  1  0  0  0
  4  5  1  0  0  0
  5 61  1  0  0  0
  5  6  1  0  0  0
  6 62  1  0  0  0
  6  7  1  0  0  0
  7 63  1  0  0  0
  8 63  1  0  0  0
  8 64  1  0  0  0
  8  4  1  0  0  0
  9 64  1  0  0  0
  9 10  1  0  0  0
 10 11  1  0  0  0
 11 12  1  0  0  0
 12 13  1  0  0  0
 12 14  1  0  0  0
 14 15  1  0  0  0
 14 48  1  0  0  0
 15 16  1  0  0  0
 16 17  1  0  0  0
 17 18  1  0  0  0
 17 19  1  0  0  0
 19 20  1  0  0  0
 19 12  1  0  0  0
 20 21  1  0  0  0
 23 22  1  0  0  0
 23 24  1  0  0  0
 24 25  1  0  0  0
 25 26  1  0  0  0
 25 27  1  0  0  0
 25 28  1  0  0  0
 28 29  1  0  0  0
 29 30  1  0  0  0
 30 31  1  0  0  0
 30 35  1  0  0  0
 30 23  1  0  0  0
 31 32  1  0  0  0
 32 33  1  0  0  0
 33 34  1  0  0  0
 33 22  1  0  0  0
 33 17  1  0  0  0
 35 66  1  0  0  0
 36 66  1  0  0  0
 36 67  1  0  0  0
 37 67  1  0  0  0
 37 38  1  0  0  0
 37 45  1  0  0  0
 38 68  1  0  0  0
 39 68  1  0  0  0
 39 69  1  0  0  0
 40 69  1  0  0  0
 40 41  1  0  0  0
 40 42  1  0  0  0
 41 70  1  0  0  0
 42 71  1  0  0  0
 42 43  1  0  0  0
 43 72  1  0  0  0
 43 44  1  0  0  0
 44 73  1  0  0  0
 44 39  1  0  0  0
 45 74  1  0  0  0
 45 46  1  0  0  0
 46 75  1  0  0  0
 46 47  1  0  0  0
 47 76  1  0  0  0
 47 36  1  0  0  0
 48 49  1  0  0  0
 48 50  1  0  0  0
 48  9  1  0  0  0
 51 77  1  0  0  0
 51 52  1  0  0  0
 52 78  1  0  0  0
 52 58  1  0  0  0
 53 78  1  0  0  0
 53 79  1  0  0  0
 54 79  1  0  0  0
 54 55  1  0  0  0
 55 80  1  0  0  0
 55 56  1  0  0  0
 56 81  1  0  0  0
 56 57  1  0  0  0
 57 82  1  0  0  0
 57 53  1  0  0  0
 58 83  1  0  0  0
 58  2  1  0  0  0
 21 22  2  0  0  0
 35 65  2  0  0  0
M  END
> <rmsd>
0.716552138

$$$$
MolPort-000-757-107 LN01791272 PubChem-44661022


 83 92  0  0  0  0  0  0  0  0999 V2000
    7.2156    4.5156   55.7929 C   0  0  0  0  0
    5.7046    4.4337   55.8688 C   0  0  0  0  0
    3.7936    4.0286   54.6449 C   0  0  0  0  0
    2.7857    5.5130   53.2045 C   0  0  0  0  0
    1.4260    4.7842   53.1765 C   0  0  0  0  0
    0.9574    4.3825   51.7815 C   0  0  0  0  0
    2.1544    3.8429   51.0075 C   0  0  0  0  0
    3.7443    5.1551   52.0289 C   0  0  0  0  0
    4.1192    7.2815   51.2386 C   0  0  0  0  0
    4.2807    7.2443   49.7133 C   0  0  0  0  0
    3.3148    8.2438   49.0523 C   0  0  0  0  0
    2.9618    9.4668   49.9290 C   0  0  0  0  0
    1.7426    9.1107   50.7786 C   0  0  0  0  0
    4.1725    9.7811   50.8331 C   0  0  0  0  0
    4.1954   11.2216   51.3291 C   0  0  0  0  0
    4.4229   12.1477   50.1272 C   0  0  0  0  0
    3.6076   11.8100   48.8457 C   0  0  0  0  0
    2.8198   13.0773   48.5065 C   0  0  0  0  0
    2.5555   10.6964   49.0826 C   0  0  0  0  0
    1.7242   10.3694   47.8375 C   0  0  0  0  0
    2.5561   10.2998   46.5910 C   0  0  0  0  0
    3.8057   10.7870   46.4788 C   0  0  0  0  0
    4.5777   10.5925   45.1871 C   0  0  0  0  0
    3.8151    9.9076   44.0431 C   0  0  0  0  0
    4.7769    9.5122   42.9188 C   0  0  0  0  0
    3.9672    9.0110   41.7422 C   0  0  0  0  0
    5.6831    8.3844   43.3724 C   0  0  0  0  0
    5.6260   10.7047   42.4608 C   0  0  0  0  0
    6.3045   11.4429   43.6277 C   0  0  0  0  0
    5.2983   11.8695   44.7078 C   0  0  0  0  0
    6.1138   12.4504   45.8663 C   0  0  0  0  0
    5.2929   12.6798   47.1426 C   0  0  0  0  0
    4.5584   11.4205   47.6501 C   0  0  0  0  0
    5.6200   10.4142   48.0993 C   0  0  0  0  0
    4.3275   12.9088   44.1634 C   0  0  0  0  0
    2.0475   13.8219   44.2866 C   0  0  0  0  0
    1.2743   15.4936   42.9913 C   0  0  0  0  0
    1.6101   16.8150   42.3100 C   0  0  0  0  0
    2.4853   16.3637   40.2962 C   0  0  0  0  0
    3.0485   18.4640   39.3831 C   0  0  0  0  0
    2.9542   19.5429   40.4482 C   0  0  0  0  0
    4.4772   17.9319   39.1215 C   0  0  0  0  0
    4.3920   16.4961   38.6144 C   0  0  0  0  0
    3.6460   15.6103   39.6184 C   0  0  0  0  0
   -0.0625   15.6186   43.7424 C   0  0  0  0  0
   -0.3932   14.3088   44.4693 C   0  0  0  0  0
    0.8372   13.7949   45.2258 C   0  0  0  0  0
    4.5645    8.6470   51.8215 C   0  0  0  0  0
    6.0729    8.6704   52.0196 C   0  0  0  0  0
    3.8942    8.8522   53.1691 C   0  0  0  0  0
    3.1010    3.3288   55.8369 C   0  0  0  0  0
    3.7610    3.6296   57.1979 C   0  0  0  0  0
    2.2954    4.5841   58.6298 C   0  0  0  0  0
    3.2011    4.6152   60.7616 C   0  0  0  0  0
    2.0335    5.3286   61.4550 C   0  0  0  0  0
    0.9382    5.6967   60.4297 C   0  0  0  0  0
    1.5095    5.8644   59.0194 C   0  0  0  0  0
    5.2834    3.5936   57.0799 C   0  0  0  0  0
    5.2007    3.8780   54.6715 O   0  0  0  0  0
    3.4162    5.3842   54.4707 O   0  0  0  0  0
    0.4571    5.5556   53.8214 O   0  0  0  0  0
    0.4046    5.4803   51.1041 O   0  0  0  0  0
    3.0807    4.8816   50.8019 O   0  0  0  0  0
    4.7280    6.1666   51.8579 O   0  0  0  0  0
    4.4953   13.4013   43.0137 O   0  0  0  0  0
    3.1969   13.2621   44.9091 O   0  0  0  0  0
    2.3020   15.1485   43.8833 O   0  0  0  0  0
    2.8210   16.7251   41.6123 O   0  0  0  0  0
    2.0330   17.4760   39.5371 O   0  0  0  0  0
    1.7025   20.1671   40.3843 O   0  0  0  0  0
    5.2634   17.9890   40.2820 O   0  0  0  0  0
    5.6700   15.9782   38.3676 O   0  0  0  0  0
    3.1606   14.4716   38.9789 O   0  0  0  0  0
   -1.0899   15.9393   42.8595 O   0  0  0  0  0
   -0.8433   13.3499   43.5594 O   0  0  0  0  0
    0.6062   12.4934   45.6797 O   0  0  0  0  0
    1.7301    3.5934   55.8686 O   0  0  0  0  0
    3.3471    4.8612   57.7397 O   0  0  0  0  0
    2.7253    3.7827   59.7286 O   0  0  0  0  0
    2.5113    6.4646   62.1154 O   0  0  0  0  0
    0.2192    6.8338   60.8183 O   0  0  0  0  0
    2.3474    6.9902   58.9775 O   0  0  0  0  0
    5.7202    2.2708   56.9411 O   0  0  0  0  0
  1  2  1  0  0  0
  2 59  1  0  0  0
  3 59  1  0  0  0
  3 60  1  0  0  0
  3 51  1  0  0  0
  4 60  1  0  0  0
  4  5  1  0  0  0
  5 61  1  0  0  0
  5  6  1  0  0  0
  6 62  1  0  0  0
  6  7  1  0  0  0
  7 63  1  0  0  0
  8 63  1  0  0  0
  8 64  1  0  0  0
  8  4  1  0  0  0
  9 64  1  0  0  0
  9 10  1  0  0  0
 10 11  1  0  0  0
 11 12  1  0  0  0
 12 13  1  0  0  0
 12 14  1  0  0  0
 14 15  1  0  0  0
 14 48  1  0  0  0
 15 16  1  0  0  0
 16 17  1  0  0  0
 17 18  1  0  0  0
 17 19  1  0  0  0
 19 20  1  0  0  0
 19 12  1  0  0  0
 20 21  1  0  0  0
 23 22  1  0  0  0
 23 24  1  0  0  0
 24 25  1  0  0  0
 25 26  1  0  0  0
 25 27  1  0  0  0
 25 28  1  0  0  0
 28 29  1  0  0  0
 29 30  1  0  0  0
 30 31  1  0  0  0
 30 35  1  0  0  0
 30 23  1  0  0  0
 31 32  1  0  0  0
 32 33  1  0  0  0
 33 34  1  0  0  0
 33 22  1  0  0  0
 33 17  1  0  0  0
 35 66  1  0  0  0
 36 66  1  0  0  0
 36 67  1  0  0  0
 37 67  1  0  0  0
 37 38  1  0  0  0
 37 45  1  0  0  0
 38 68  1  0  0  0
 39 68  1  0  0  0
 39 69  1  0  0  0
 40 69  1  0  0  0
 40 41  1  0  0  0
 40 42  1  0  0  0
 41 70  1  0  0  0
 42 71  1  0  0  0
 42 43  1  0  0  0
 43 72  1  0  0  0
 43 44  1  0  0  0
 44 73  1  0  0  0
 44 39  1  0  0  0
 45 74  1  0  0  0
 45 46  1  0  0  0
 46 75  1  0  0  0
 46 47  1  0  0  0
 47 76  1  0  0  0
 47 36  1  0  0  0
 48 49  1  0  0  0
 48 50  1  0  0  0
 48  9  1  0  0  0
 51 77  1  0  0  0
 51 52  1  0  0  0
 52 78  1  0  0  0
 52 58  1  0  0  0
 53 78  1  0  0  0
 53 79  1  0  0  0
 54 79  1  0  0  0
 54 55  1  0  0  0
 55 80  1  0  0  0
 55 56  1  0  0  0
 56 81  1  0  0  0
 56 57  1  0  0  0
 57 82  1  0  0  0
 57 53  1  0  0  0
 58 83  1  0  0  0
 58  2  1  0  0  0
 21 22  2  0  0  0
 35 65  2  0  0  0
M  END
> <rmsd>
0.793919921

$$$$
MolPort-000-757-107 LN01791272 PubChem-44661022


 83 92  0  0  0  0  0  0  0  0999 V2000
    7.3723    4.3114   56.1391 C   0  0  0  0  0
    5.8666    4.1634   56.2189 C   0  0  0  0  0
    3.9840    3.5687   55.0289 C   0  0  0  0  0
    2.9143    4.8809   53.4706 C   0  0  0  0  0
    1.5912    4.0877   53.5000 C   0  0  0  0  0
    1.1500    3.5518   52.1415 C   0  0  0  0  0
    2.3757    3.0091   51.4161 C   0  0  0  0  0
    3.8954    4.4750   52.3297 C   0  0  0  0  0
    4.1728    6.5456   51.3693 C   0  0  0  0  0
    4.3443    6.3923   49.8524 C   0  0  0  0  0
    3.3355    7.2871   49.1105 C   0  0  0  0  0
    2.9196    8.5589   49.8840 C   0  0  0  0  0
    1.7141    8.2150   50.7578 C   0  0  0  0  0
    4.1089    9.0036   50.7614 C   0  0  0  0  0
    4.0601   10.4791   51.1384 C   0  0  0  0  0
    4.2498   11.3142   49.8654 C   0  0  0  0  0
    3.4587   10.8346   48.6144 C   0  0  0  0  0
    2.6132   12.0307   48.1717 C   0  0  0  0  0
    2.4597    9.6947   48.9395 C   0  0  0  0  0
    1.6519    9.2279   47.7239 C   0  0  0  0  0
    2.4931    9.0971   46.4885 C   0  0  0  0  0
    3.7186    9.6331   46.3390 C   0  0  0  0  0
    4.5062    9.3715   45.0688 C   0  0  0  0  0
    3.7836    8.5599   43.9832 C   0  0  0  0  0
    4.7694    8.1211   42.8964 C   0  0  0  0  0
    3.9911    7.4875   41.7633 C   0  0  0  0  0
    5.7259    7.0788   43.4420 C   0  0  0  0  0
    5.5630    9.3118   42.3442 C   0  0  0  0  0
    6.1990   10.1742   43.4481 C   0  0  0  0  0
    5.1676   10.6384   44.4881 C   0  0  0  0  0
    5.9480   11.3501   45.5968 C   0  0  0  0  0
    5.1100   11.6429   46.8488 C   0  0  0  0  0
    4.4337   10.3952   47.4561 C   0  0  0  0  0
    5.5396    9.4810   47.9875 C   0  0  0  0  0
    4.1513   11.5822   43.8592 C   0  0  0  0  0
    1.8297   12.3916   43.9039 C   0  0  0  0  0
    0.9847   13.9133   42.4753 C   0  0  0  0  0
    1.2608   15.1895   41.6891 C   0  0  0  0  0
    2.1677   14.6185   39.7202 C   0  0  0  0  0
    2.6351   16.6621   38.6399 C   0  0  0  0  0
    2.4834   17.8184   39.6133 C   0  0  0  0  0
    4.0890   16.1798   38.4249 C   0  0  0  0  0
    4.0753   14.7051   38.0364 C   0  0  0  0  0
    3.3669   13.8691   39.1080 C   0  0  0  0  0
   -0.3607   14.0346   43.2115 C   0  0  0  0  0
   -0.6325   12.7739   44.0423 C   0  0  0  0  0
    0.6168   12.3830   44.8402 C   0  0  0  0  0
    4.5491    7.9738   51.8397 C   0  0  0  0  0
    6.0535    8.0857   52.0377 C   0  0  0  0  0
    3.8622    8.2555   53.1649 C   0  0  0  0  0
    3.3189    2.9357   56.2729 C   0  0  0  0  0
    3.9563    3.3776   57.6059 C   0  0  0  0  0
    2.4388    4.3739   58.9528 C   0  0  0  0  0
    3.3301    4.6218   61.0765 C   0  0  0  0  0
    2.1259    5.3323   61.7075 C   0  0  0  0  0
    1.0201    5.5627   60.6538 C   0  0  0  0  0
    1.5905    5.6424   59.2354 C   0  0  0  0  0
    5.4793    3.4053   57.4937 C   0  0  0  0  0
    5.3964    3.4886   55.0700 O   0  0  0  0  0
    3.5432    4.8859   54.7441 O   0  0  0  0  0
    0.5830    4.8615   54.0782 O   0  0  0  0  0
    0.5492    4.5630   51.3760 O   0  0  0  0  0
    3.2525    4.0710   51.1280 O   0  0  0  0  0
    4.8307    5.5153   52.0785 O   0  0  0  0  0
    4.3018   11.9870   42.6735 O   0  0  0  0  0
    3.0010   11.9402   44.5719 O   0  0  0  0  0
    2.0227   13.6917   43.3941 O   0  0  0  0  0
    2.4785   15.1015   41.0030 O   0  0  0  0  0
    1.6670   15.6423   38.8723 O   0  0  0  0  0
    1.2037   18.3744   39.4967 O   0  0  0  0  0
    4.8651   16.3689   39.5781 O   0  0  0  0  0
    5.3779   14.2308   37.8347 O   0  0  0  0  0
    2.9400   12.6601   38.5627 O   0  0  0  0  0
   -1.3974   14.2326   42.3037 O   0  0  0  0  0
   -1.0312   11.7236   43.2128 O   0  0  0  0  0
    0.4458   11.1131   45.3982 O   0  0  0  0  0
    1.9368    3.1358   56.2807 O   0  0  0  0  0
    3.4810    4.6279   58.0448 O   0  0  0  0  0
    2.9003    3.6861   60.1140 O   0  0  0  0  0
    2.5452    6.5399   62.2738 O   0  0  0  0  0
    0.2454    6.6918   60.9472 O   0  0  0  0  0
    2.3738    6.8000   59.1033 O   0  0  0  0  0
    5.9795    2.0982   57.4640 O   0  0  0  0  0
  1  2  1  0  0  0
  2 59  1  0  0  0
  3 59  1  0  0  0
  3 60  1  0  0  0
  3 51  1  0  0  0
  4 60  1  0  0  0
  4  5  1  0  0  0
  5 61  1  0  0  0
  5  6  1  0  0  0
  6 62  1  0  0  0
  6  7  1  0  0  0
  7 63  1  0  0  0
  8 63  1  0  0  0
  8 64  1  0  0  0
  8  4  1  0  0  0
  9 64  1  0  0  0
  9 10  1  0  0  0
 10 11  1  0  0  0
 11 12  1  0  0  0
 12 13  1  0  0  0
 12 14  1  0  0  0
 14 15  1  0  0  0
 14 48  1  0  0  0
 15 16  1  0  0  0
 16 17  1  0  0  0
 17 18  1  0  0  0
 17 19  1  0  0  0
 19 20  1  0  0  0
 19 12  1  0  0  0
 20 21  1  0  0  0
 23 22  1  0  0  0
 23 24  1  0  0  0
 24 25  1  0  0  0
 25 26  1  0  0  0
 25 27  1  0  0  0
 25 28  1  0  0  0
 28 29  1  0  0  0
 29 30  1  0  0  0
 30 31  1  0  0  0
 30 35  1  0  0  0
 30 23  1  0  0  0
 31 32  1  0  0  0
 32 33  1  0  0  0
 33 34  1  0  0  0
 33 22  1  0  0  0
 33 17  1  0  0  0
 35 66  1  0  0  0
 36 66  1  0  0  0
 36 67  1  0  0  0
 37 67  1  0  0  0
 37 38  1  0  0  0
 37 45  1  0  0  0
 38 68  1  0  0  0
 39 68  1  0  0  0
 39 69  1  0  0  0
 40 69  1  0  0  0
 40 41  1  0  0  0
 40 42  1  0  0  0
 41 70  1  0  0  0
 42 71  1  0  0  0
 42 43  1  0  0  0
 43 72  1  0  0  0
 43 44  1  0  0  0
 44 73  1  0  0  0
 44 39  1  0  0  0
 45 74  1  0  0  0
 45 46  1  0  0  0
 46 75  1  0  0  0
 46 47  1  0  0  0
 47 76  1  0  0  0
 47 36  1  0  0  0
 48 49  1  0  0  0
 48 50  1  0  0  0
 48  9  1  0  0  0
 51 77  1  0  0  0
 51 52  1  0  0  0
 52 78  1  0  0  0
 52 58  1  0  0  0
 53 78  1  0  0  0
 53 79  1  0  0  0
 54 79  1  0  0  0
 54 55  1  0  0  0
 55 80  1  0  0  0
 55 56  1  0  0  0
 56 81  1  0  0  0
 56 57  1  0  0  0
 57 82  1  0  0  0
 57 53  1  0  0  0
 58 83  1  0  0  0
 58  2  1  0  0  0
 21 22  2  0  0  0
 35 65  2  0  0  0
M  END
> <rmsd>
0.746446371

$$$$
MolPort-039-141-310 LN02124134 MCULE-2341488563 PubChem-51346147


 72 80  0  0  0  0  0  0  0  0999 V2000
    0.7719   10.9066   44.8617 C   0  0  0  0  0
   -0.2211   11.1109   43.7286 C   0  0  0  0  0
    0.0025   12.4629   43.0277 C   0  0  0  0  0
   -0.1442   12.3064   41.5149 C   0  0  0  0  0
    0.7618   11.1809   40.9906 C   0  0  0  0  0
    0.8871   10.0404   42.0146 C   0  0  0  0  0
    1.9845    7.9883   41.9709 C   0  0  0  0  0
    3.3299    8.6338   42.3872 C   0  0  0  0  0
    3.8060    6.9806   43.9388 C   0  0  0  0  0
    2.4907    6.2162   43.6915 C   0  0  0  0  0
    1.3896    7.0682   43.0489 C   0  0  0  0  0
    2.9991    5.0501   41.7625 C   0  0  0  0  0
    2.3233    3.9288   40.9678 C   0  0  0  0  0
    2.6684    4.1107   39.4848 C   0  0  0  0  0
    4.1710    4.3343   39.2790 C   0  0  0  0  0
    4.6656    5.3910   40.2752 C   0  0  0  0  0
    6.1625    5.6003   40.1250 C   0  0  0  0  0
    4.0909    7.1363   46.1446 C   0  0  0  0  0
    5.5104    7.5225   46.5529 C   0  0  0  0  0
    5.9574    6.6535   47.7304 C   0  0  0  0  0
    5.0417    6.8072   48.9576 C   0  0  0  0  0
    5.4040    5.7070   49.9778 C   0  0  0  0  0
    6.8527    5.8361   50.5050 C   0  0  0  0  0
    7.1868    4.7752   51.5682 C   0  0  0  0  0
    6.1583    4.8168   52.6945 C   0  0  0  0  0
    4.7979    4.5499   52.0887 C   0  0  0  0  0
    4.3518    5.6280   51.1051 C   0  0  0  0  0
    2.9949    5.2529   50.5100 C   0  0  0  0  0
    2.6763    5.9944   49.2383 C   0  0  0  0  0
    3.5848    6.6821   48.5270 C   0  0  0  0  0
    3.1240    7.4016   47.2941 C   0  0  0  0  0
    3.9119    4.1872   53.2599 C   0  0  0  0  0
    4.8325    3.2883   54.0817 C   0  0  0  0  0
    6.2830    3.6383   53.6777 C   0  0  0  0  0
    6.9170    3.9671   54.9942 C   0  0  0  0  0
    6.0121    3.9317   55.9559 C   0  0  0  0  0
    6.2892    4.1884   57.3982 C   0  0  0  0  0
    6.2035    2.8844   58.1789 C   0  0  0  0  0
    6.8792    2.9733   59.5474 C   0  0  0  0  0
    8.3706    3.2148   59.4056 C   0  0  0  0  0
    6.2541    4.0408   60.4293 C   0  0  0  0  0
    4.1415    4.6624   60.6711 C   0  0  0  0  0
    2.7986    4.1165   60.1611 C   0  0  0  0  0
    1.5987    4.8717   60.7475 C   0  0  0  0  0
    1.8968    6.3585   60.9836 C   0  0  0  0  0
    3.3389    6.6022   61.4637 C   0  0  0  0  0
    3.3510    7.5803   62.6227 C   0  0  0  0  0
    8.3649    4.2758   55.1803 C   0  0  0  0  0
    6.1915    6.1911   53.3916 C   0  0  0  0  0
    5.2524    8.1910   49.5690 C   0  0  0  0  0
    3.9328    9.4439   41.2467 C   0  0  0  0  0
   -0.2533    9.9994   42.8465 O   0  0  0  0  0
    1.0271    8.8183   41.3305 O   0  0  0  0  0
    4.2615    7.6451   42.7776 O   0  0  0  0  0
    0.7609    7.8080   44.0489 O   0  0  0  0  0
    2.6720    4.9332   43.1241 O   0  0  0  0  0
    4.3961    4.9775   41.5934 O   0  0  0  0  0
    4.3980    4.7653   37.9703 O   0  0  0  0  0
    2.2400    3.0061   38.7463 O   0  0  0  0  0
    2.7682    2.6819   41.4262 O   0  0  0  0  0
    3.6946    7.8682   45.0210 O   0  0  0  0  0
    4.7626    3.5903   55.4684 O   0  0  0  0  0
    5.0170    3.6013   60.9067 O   0  0  0  0  0
    3.9639    5.4042   61.8540 O   0  0  0  0  0
    2.9514    8.8435   62.1847 O   0  0  0  0  0
    1.6743    7.0738   59.8066 O   0  0  0  0  0
    1.2249    4.2779   61.9541 O   0  0  0  0  0
    2.7649    4.1849   58.7680 O   0  0  0  0  0
    4.1842    8.6316   40.1398 O   0  0  0  0  0
    2.0350   11.6735   40.6890 O   0  0  0  0  0
    0.1247   13.5132   40.8655 O   0  0  0  0  0
   -0.9220   13.3926   43.5052 O   0  0  0  0  0
  2  1  1  0  0  0
  2  3  1  0  0  0
  2 52  1  0  0  0
  3  4  1  0  0  0
  3 72  1  0  0  0
  4  5  1  0  0  0
  4 71  1  0  0  0
  5  6  1  0  0  0
  5 70  1  0  0  0
  6 52  1  0  0  0
  6 53  1  0  0  0
  7 53  1  0  0  0
  7  8  1  0  0  0
  8 54  1  0  0  0
  8 51  1  0  0  0
  9 54  1  0  0  0
  9 10  1  0  0  0
  9 61  1  0  0  0
 10 11  1  0  0  0
 10 56  1  0  0  0
 11 55  1  0  0  0
 11  7  1  0  0  0
 12 56  1  0  0  0
 12 13  1  0  0  0
 12 57  1  0  0  0
 13 14  1  0  0  0
 13 60  1  0  0  0
 14 15  1  0  0  0
 14 59  1  0  0  0
 15 16  1  0  0  0
 15 58  1  0  0  0
 16 57  1  0  0  0
 16 17  1  0  0  0
 18 61  1  0  0  0
 18 19  1  0  0  0
 19 20  1  0  0  0
 20 21  1  0  0  0
 21 22  1  0  0  0
 21 50  1  0  0  0
 21 30  1  0  0  0
 22 23  1  0  0  0
 23 24  1  0  0  0
 24 25  1  0  0  0
 25 26  1  0  0  0
 25 49  1  0  0  0
 26 27  1  0  0  0
 26 32  1  0  0  0
 27 28  1  0  0  0
 27 22  1  0  0  0
 28 29  1  0  0  0
 31 30  1  0  0  0
 31 18  1  0  0  0
 33 32  1  0  0  0
 33 34  1  0  0  0
 33 62  1  0  0  0
 34 35  1  0  0  0
 34 25  1  0  0  0
 36 62  1  0  0  0
 37 36  1  0  0  0
 37 38  1  0  0  0
 39 38  1  0  0  0
 39 40  1  0  0  0
 39 41  1  0  0  0
 41 63  1  0  0  0
 42 63  1  0  0  0
 42 43  1  0  0  0
 42 64  1  0  0  0
 43 44  1  0  0  0
 43 68  1  0  0  0
 44 45  1  0  0  0
 44 67  1  0  0  0
 45 46  1  0  0  0
 45 66  1  0  0  0
 46 64  1  0  0  0
 46 47  1  0  0  0
 47 65  1  0  0  0
 48 35  1  0  0  0
 51 69  1  0  0  0
 29 30  2  0  0  0
 35 36  2  0  0  0
M  END
> <rmsd>
0.709226072

$$$$
MolPort-027-720-872 LN02124078 MCULE-8745617135 PubChem-16007240


 73 80  0  0  0  0  0  0  0  0999 V2000
    0.4836   14.9813   45.2888 C   0  0  0  0  0
    1.0526   13.8581   44.4393 C   0  0  0  0  0
    2.6971   12.3055   44.2950 C   0  0  0  0  0
    4.7692   12.8720   45.0093 C   0  0  0  0  0
    5.8847   12.5517   46.0315 C   0  0  0  0  0
    4.7799   11.0585   47.4276 C   0  0  0  0  0
    5.7650    9.9349   47.7844 C   0  0  0  0  0
    6.1353    9.9886   49.2616 C   0  0  0  0  0
    4.9167    9.9029   50.2134 C   0  0  0  0  0
    4.9812   11.0175   51.2330 C   0  0  0  0  0
    3.5873    9.9823   49.4157 C   0  0  0  0  0
    2.3495    9.8236   50.3017 C   0  0  0  0  0
    2.3723    8.4325   50.9374 C   0  0  0  0  0
    3.6484    8.1715   51.7598 C   0  0  0  0  0
    3.5676    9.0141   53.0376 C   0  0  0  0  0
    4.9306    8.5280   50.9245 C   0  0  0  0  0
    6.2481    8.1951   51.6637 C   0  0  0  0  0
    6.2809    6.7234   52.0948 C   0  0  0  0  0
    5.0316    6.4469   52.9229 C   0  0  0  0  0
    4.8778    5.0899   53.5802 C   0  0  0  0  0
    3.3751    5.0062   53.8728 C   0  0  0  0  0
    2.6944    6.1312   53.0824 C   0  0  0  0  0
    3.7532    6.6638   52.1294 C   0  0  0  0  0
    3.7227    5.7837   50.8693 C   0  0  0  0  0
    5.7627    4.8785   54.8287 C   0  0  0  0  0
    7.1994    4.6618   54.3502 C   0  0  0  0  0
    8.1536    4.3164   55.4874 C   0  0  0  0  0
    9.5460    4.2342   54.9505 C   0  0  0  0  0
   10.6080    3.9851   55.7233 C   0  0  0  0  0
   11.9582    3.9018   55.0932 C   0  0  0  0  0
   10.4819    3.7709   57.2021 C   0  0  0  0  0
    5.7243    6.0810   55.7879 C   0  0  0  0  0
    4.5734    5.9644   57.6790 C   0  0  0  0  0
    3.9474    4.5639   59.3169 C   0  0  0  0  0
    3.1630    3.3067   59.6654 C   0  0  0  0  0
    3.7430    5.6519   60.3844 C   0  0  0  0  0
    3.5929    7.0539   59.7728 C   0  0  0  0  0
    4.4566    7.2484   58.5197 C   0  0  0  0  0
    3.5140   11.0846   48.3339 C   0  0  0  0  0
    3.2949   12.4533   48.9758 C   0  0  0  0  0
    2.3156   10.8033   47.4408 C   0  0  0  0  0
    7.4767   12.0983   44.4988 C   0  0  0  0  0
    6.5536   12.2678   43.2947 C   0  0  0  0  0
    5.4003   13.2149   43.6461 C   0  0  0  0  0
    4.7548   15.2236   42.9637 C   0  0  0  0  0
    5.1836   16.3883   40.9710 C   0  0  0  0  0
    4.0134   17.3587   41.1729 C   0  0  0  0  0
    3.6081   17.4284   42.6492 C   0  0  0  0  0
    4.5542   16.6373   43.5472 C   0  0  0  0  0
    1.7597   11.1586   43.9154 C   0  0  0  0  0
    0.5272   11.7239   43.1987 C   0  0  0  0  0
   -0.0621   12.8917   44.0075 C   0  0  0  0  0
    2.0237   13.1660   45.1900 O   0  0  0  0  0
    3.8716   11.7952   44.8808 O   0  0  0  0  0
    5.4277   12.3137   47.3527 O   0  0  0  0  0
    5.8980   11.8200   51.2616 O   0  0  0  0  0
    5.3382    3.7264   55.5005 O   0  0  0  0  0
    4.4475    6.2739   56.3231 O   0  0  0  0  0
    3.5958    5.0199   58.0369 O   0  0  0  0  0
    1.7902    3.5465   59.5905 O   0  0  0  0  0
    4.8235    5.6332   61.2675 O   0  0  0  0  0
    2.2522    7.2808   59.4553 O   0  0  0  0  0
    5.7344    7.6716   58.8899 O   0  0  0  0  0
    6.7549   11.5440   45.5706 O   0  0  0  0  0
    7.2751   12.7368   42.1921 O   0  0  0  0  0
    5.8087   14.5541   43.6101 O   0  0  0  0  0
    4.8906   15.1269   41.5439 O   0  0  0  0  0
    2.9109   16.9224   40.4294 O   0  0  0  0  0
    3.5578   18.7543   43.0610 O   0  0  0  0  0
    4.0221   16.5431   44.8353 O   0  0  0  0  0
    2.4174   10.2136   43.1118 O   0  0  0  0  0
    0.8684   12.1462   41.9078 O   0  0  0  0  0
   -1.0327   13.5602   43.2555 O   0  0  0  0  0
  2  1  1  0  0  0
  2 53  1  0  0  0
  3 53  1  0  0  0
  3 54  1  0  0  0
  3 50  1  0  0  0
  4 54  1  0  0  0
  4  5  1  0  0  0
  5 55  1  0  0  0
  5 64  1  0  0  0
  6 55  1  0  0  0
  6  7  1  0  0  0
  7  8  1  0  0  0
  8  9  1  0  0  0
  9 10  1  0  0  0
  9 11  1  0  0  0
 11 12  1  0  0  0
 11 39  1  0  0  0
 12 13  1  0  0  0
 13 14  1  0  0  0
 14 15  1  0  0  0
 14 16  1  0  0  0
 16 17  1  0  0  0
 16  9  1  0  0  0
 17 18  1  0  0  0
 19 18  1  0  0  0
 19 20  1  0  0  0
 20 21  1  0  0  0
 20 25  1  0  0  0
 21 22  1  0  0  0
 22 23  1  0  0  0
 23 24  1  0  0  0
 23 19  1  0  0  0
 23 14  1  0  0  0
 25 57  1  0  0  0
 25 26  1  0  0  0
 25 32  1  0  0  0
 26 27  1  0  0  0
 27 28  1  0  0  0
 30 29  1  0  0  0
 31 29  1  0  0  0
 32 58  1  0  0  0
 33 58  1  0  0  0
 33 59  1  0  0  0
 34 59  1  0  0  0
 34 35  1  0  0  0
 34 36  1  0  0  0
 35 60  1  0  0  0
 36 61  1  0  0  0
 36 37  1  0  0  0
 37 62  1  0  0  0
 37 38  1  0  0  0
 38 63  1  0  0  0
 38 33  1  0  0  0
 39 40  1  0  0  0
 39 41  1  0  0  0
 39  6  1  0  0  0
 42 64  1  0  0  0
 42 43  1  0  0  0
 43 65  1  0  0  0
 43 44  1  0  0  0
 44 66  1  0  0  0
 44  4  1  0  0  0
 45 66  1  0  0  0
 45 67  1  0  0  0
 46 67  1  0  0  0
 46 47  1  0  0  0
 47 68  1  0  0  0
 47 48  1  0  0  0
 48 69  1  0  0  0
 48 49  1  0  0  0
 49 70  1  0  0  0
 49 45  1  0  0  0
 50 71  1  0  0  0
 50 51  1  0  0  0
 51 72  1  0  0  0
 51 52  1  0  0  0
 52 73  1  0  0  0
 52  2  1  0  0  0
 10 56  2  0  0  0
 28 29  2  0  0  0
M  END
> <rmsd>
0.725471377

$$$$
MolPort-044-561-736 PubChem-132285221


 95 96  0  0  0  0  0  0  0  0999 V2000
    7.2759    5.1551   50.1655 C   0  0  0  0  0
    8.1938    3.9462   50.2577 C   0  0  0  0  0
    8.9430    3.8412   48.9712 C   0  0  0  0  0
    8.8153    2.7527   48.2217 C   0  0  0  0  0
    9.5389    2.6403   46.9211 C   0  0  0  0  0
    8.5582    2.5459   45.7576 C   0  0  0  0  0
    8.0402    3.9251   45.3337 C   0  0  0  0  0
    7.2524    3.8677   44.0211 C   0  0  0  0  0
    6.1039    2.8581   44.0732 C   0  0  0  0  0
    8.1674    3.6826   42.8031 C   0  0  0  0  0
    7.5813    4.3447   41.5488 C   0  0  0  0  0
    6.3699    3.5998   41.0061 C   0  0  0  0  0
    5.2930    4.5622   40.5388 C   0  0  0  0  0
    4.6667    5.2445   41.7499 C   0  0  0  0  0
    3.2625    5.7442   41.4260 C   0  0  0  0  0
    3.2305    7.0759   40.7354 C   0  0  0  0  0
    1.7996    8.9664   39.9210 C   0  0  0  0  0
    2.5320    9.1755   38.5733 C   0  0  0  0  0
    2.1591   10.5138   37.9579 C   0  0  0  0  0
    2.1680    8.0544   37.6036 C   0  0  0  0  0
    3.2173    7.8684   36.5134 C   0  0  0  0  0
    3.1489    8.9546   35.4517 C   0  0  0  0  0
    1.8386    8.8655   34.6787 C   0  0  0  0  0
    1.7683    9.9560   33.6294 C   0  0  0  0  0
    0.3619   10.0444   33.0664 C   0  0  0  0  0
    1.9997   10.0481   41.0045 C   0  0  0  0  0
    3.4604   10.4613   41.1586 C   0  0  0  0  0
    1.0951   11.2712   40.7906 C   0  0  0  0  0
    1.0951   12.2122   42.0027 C   0  0  0  0  0
    0.4489   11.5975   43.2421 C   0  0  0  0  0
   -1.0755   11.7232   43.2348 C   0  0  0  0  0
   -1.5782   13.1592   43.4263 C   0  0  0  0  0
   -3.0800   13.1849   43.7321 C   0  0  0  0  0
   -3.8703   12.7150   42.5193 C   0  0  0  0  0
   -3.5427   14.5848   44.1673 C   0  0  0  0  0
   -2.8544   15.0393   45.4578 C   0  0  0  0  0
   -2.5257   16.5196   45.3709 C   0  0  0  0  0
   -3.6253   14.6783   46.7307 C   0  0  0  0  0
   -2.6815   14.6658   47.9223 C   0  0  0  0  0
   -3.4128   14.3044   49.2063 C   0  0  0  0  0
   -2.5601   13.4188   50.1065 C   0  0  0  0  0
   -1.2812   14.1174   50.5718 C   0  0  0  0  0
   -0.2977   13.1381   51.2228 C   0  0  0  0  0
    0.1125   12.0229   50.2624 C   0  0  0  0  0
   -0.7730   12.6377   52.5998 C   0  0  0  0  0
    0.3423   12.0517   53.4796 C   0  0  0  0  0
    1.4573   13.0587   53.7120 C   0  0  0  0  0
    0.8960   10.7698   52.9191 C   0  0  0  0  0
    0.9494    9.6247   53.6122 C   0  0  0  0  0
    0.5509    9.4626   55.0508 C   0  0  0  0  0
    1.5913   10.0792   55.9692 C   0  0  0  0  0
    1.6720    9.2832   57.2602 C   0  0  0  0  0
    3.1059    9.1674   57.7818 C   0  0  0  0  0
    3.7066   10.5147   58.1775 C   0  0  0  0  0
    3.9705    8.3680   56.8029 C   0  0  0  0  0
    4.6792    7.1973   57.4851 C   0  0  0  0  0
    5.4830    6.3995   56.4871 C   0  0  0  0  0
    4.9813    5.7284   55.4337 C   0  0  0  0  0
    3.5111    5.7277   55.1487 C   0  0  0  0  0
    5.8828    4.9872   54.4825 C   0  0  0  0  0
    7.3904    5.1524   54.7528 C   0  0  0  0  0
    7.9210    4.2377   55.8505 C   0  0  0  0  0
    8.1960    5.0850   53.4759 C   0  0  0  0  0
    8.4234    3.9795   52.7497 C   0  0  0  0  0
    7.9203    2.6457   53.1727 C   0  0  0  0  0
    9.1507    4.1072   51.4441 C   0  0  0  0  0
    4.4113    5.8427   59.2521 C   0  0  0  0  0
    3.4690    5.8360   60.4887 C   0  0  0  0  0
    2.9766    4.4188   60.8165 C   0  0  0  0  0
    4.1586    3.4472   60.9323 C   0  0  0  0  0
    5.3565    3.9284   60.1015 C   0  0  0  0  0
    6.2526    2.7538   59.7552 C   0  0  0  0  0
    4.2965    7.6490   40.3787 O   0  0  0  0  0
    1.9851    7.6569   40.4699 O   0  0  0  0  0
   10.1771    3.1631   51.3842 O   0  0  0  0  0
    5.5065    3.6467   54.4079 O   0  0  0  0  0
    3.7490    6.3714   58.1320 O   0  0  0  0  0
    7.4723    3.2268   59.2593 O   0  0  0  0  0
    4.9130    4.5606   58.9221 O   0  0  0  0  0
    4.5360    3.3196   62.2693 O   0  0  0  0  0
    2.1060    3.9771   59.8182 O   0  0  0  0  0
    2.4006    6.7226   60.3472 O   0  0  0  0  0
    4.8966    9.1748   56.1229 O   0  0  0  0  0
    0.8366    9.8385   58.2306 O   0  0  0  0  0
   -0.7116   10.0164   55.2881 O   0  0  0  0  0
   -1.8335   11.7378   52.4825 O   0  0  0  0  0
   -3.8010   15.4625   49.8843 O   0  0  0  0  0
   -4.6769   15.5800   46.9463 O   0  0  0  0  0
   -4.9343   14.6314   44.2898 O   0  0  0  0  0
   -1.2867   13.9362   42.3068 O   0  0  0  0  0
    0.9875   12.1772   44.3911 O   0  0  0  0  0
   -0.2106   10.8794   40.4829 O   0  0  0  0  0
    8.4653    2.3311   42.5844 O   0  0  0  0  0
    7.2377    4.4817   46.3334 O   0  0  0  0  0
   -0.5368   10.6211   34.0554 N   0  0  0  0  0
  1  2  1  0  0  0
  2  3  1  0  0  0
  5  4  1  0  0  0
  5  6  1  0  0  0
  6  7  1  0  0  0
  7  8  1  0  0  0
  7 94  1  0  0  0
  8  9  1  0  0  0
  8 10  1  0  0  0
 10 11  1  0  0  0
 10 93  1  0  0  0
 11 12  1  0  0  0
 12 13  1  0  0  0
 13 14  1  0  0  0
 14 15  1  0  0  0
 15 16  1  0  0  0
 16 74  1  0  0  0
 17 74  1  0  0  0
 17 18  1  0  0  0
 17 26  1  0  0  0
 18 19  1  0  0  0
 18 20  1  0  0  0
 20 21  1  0  0  0
 21 22  1  0  0  0
 22 23  1  0  0  0
 23 24  1  0  0  0
 24 25  1  0  0  0
 25 95  1  0  0  0
 26 27  1  0  0  0
 26 28  1  0  0  0
 28 29  1  0  0  0
 28 92  1  0  0  0
 29 30  1  0  0  0
 30 31  1  0  0  0
 30 91  1  0  0  0
 31 32  1  0  0  0
 32 33  1  0  0  0
 32 90  1  0  0  0
 33 34  1  0  0  0
 33 35  1  0  0  0
 35 36  1  0  0  0
 35 89  1  0  0  0
 36 37  1  0  0  0
 36 38  1  0  0  0
 38 39  1  0  0  0
 38 88  1  0  0  0
 39 40  1  0  0  0
 40 41  1  0  0  0
 40 87  1  0  0  0
 41 42  1  0  0  0
 42 43  1  0  0  0
 43 44  1  0  0  0
 43 45  1  0  0  0
 45 46  1  0  0  0
 45 86  1  0  0  0
 46 47  1  0  0  0
 46 48  1  0  0  0
 50 49  1  0  0  0
 50 51  1  0  0  0
 50 85  1  0  0  0
 51 52  1  0  0  0
 52 53  1  0  0  0
 52 84  1  0  0  0
 53 54  1  0  0  0
 53 55  1  0  0  0
 55 56  1  0  0  0
 55 83  1  0  0  0
 56 57  1  0  0  0
 56 77  1  0  0  0
 59 58  1  0  0  0
 60 58  1  0  0  0
 60 61  1  0  0  0
 60 76  1  0  0  0
 61 62  1  0  0  0
 61 63  1  0  0  0
 65 64  1  0  0  0
 66 64  1  0  0  0
 66 75  1  0  0  0
 66  2  1  0  0  0
 67 77  1  0  0  0
 67 68  1  0  0  0
 67 79  1  0  0  0
 68 69  1  0  0  0
 68 82  1  0  0  0
 69 70  1  0  0  0
 69 81  1  0  0  0
 70 71  1  0  0  0
 70 80  1  0  0  0
 71 72  1  0  0  0
 71 79  1  0  0  0
 72 78  1  0  0  0
  3  4  2  0  0  0
 16 73  2  0  0  0
 48 49  2  0  0  0
 57 58  2  0  0  0
 63 64  2  0  0  0
M  END
> <rmsd>
0.621166229

$$$$
MolPort-044-561-736 PubChem-132285221


 95 96  0  0  0  0  0  0  0  0999 V2000
    8.5319    4.2953   50.6785 C   0  0  0  0  0
    9.3129    3.0287   50.9914 C   0  0  0  0  0
   10.2385    2.7679   49.8500 C   0  0  0  0  0
   10.1307    1.6391   49.1593 C   0  0  0  0  0
   11.0326    1.3720   48.0004 C   0  0  0  0  0
   10.2379    1.2669   46.7036 C   0  0  0  0  0
    9.9166    2.6464   46.1171 C   0  0  0  0  0
    9.3379    2.5517   44.7017 C   0  0  0  0  0
    8.1095    1.6422   44.6329 C   0  0  0  0  0
   10.4091    2.2035   43.6593 C   0  0  0  0  0
   10.0842    2.8126   42.2887 C   0  0  0  0  0
    8.9089    2.1260   41.6073 C   0  0  0  0  0
    8.0070    3.1318   40.9149 C   0  0  0  0  0
    7.2656    3.9509   41.9655 C   0  0  0  0  0
    5.9782    4.5333   41.3911 C   0  0  0  0  0
    6.1720    5.8072   40.6223 C   0  0  0  0  0
    5.0580    7.7370   39.4734 C   0  0  0  0  0
    6.0045    7.7852   38.2494 C   0  0  0  0  0
    5.8518    9.0981   37.4999 C   0  0  0  0  0
    5.6951    6.6258   37.3061 C   0  0  0  0  0
    6.8787    6.2759   36.4111 C   0  0  0  0  0
    7.0716    7.2805   35.2862 C   0  0  0  0  0
    5.8930    7.2362   34.3211 C   0  0  0  0  0
    6.0825    8.2461   33.2080 C   0  0  0  0  0
    4.7930    8.4016   32.4235 C   0  0  0  0  0
    5.1851    8.8786   40.5052 C   0  0  0  0  0
    6.6358    9.1864   40.8641 C   0  0  0  0  0
    4.4371   10.1492   40.0736 C   0  0  0  0  0
    4.3350   11.1765   41.2089 C   0  0  0  0  0
    3.4536   10.7101   42.3653 C   0  0  0  0  0
    1.9659   10.9541   42.1070 C   0  0  0  0  0
    1.5702   12.4356   42.1257 C   0  0  0  0  0
    0.0476   12.6021   42.1858 C   0  0  0  0  0
   -0.5857   12.1050   40.8942 C   0  0  0  0  0
   -0.3495   14.0630   42.4531 C   0  0  0  0  0
    0.1702   14.5585   43.8060 C   0  0  0  0  0
    0.6394   15.9976   43.6802 C   0  0  0  0  0
   -0.8163   14.3567   44.9596 C   0  0  0  0  0
   -0.0718   14.3605   46.2850 C   0  0  0  0  0
   -1.0211   14.1561   47.4559 C   0  0  0  0  0
   -0.3995   13.2771   48.5342 C   0  0  0  0  0
    0.8499   13.9065   49.1530 C   0  0  0  0  0
    1.6301   12.9051   50.0125 C   0  0  0  0  0
    2.0818   11.6916   49.2015 C   0  0  0  0  0
    0.9061   12.5494   51.3246 C   0  0  0  0  0
    1.8161   11.9462   52.4059 C   0  0  0  0  0
    2.9676   12.8772   52.7498 C   0  0  0  0  0
    2.3324   10.5859   52.0223 C   0  0  0  0  0
    2.1761    9.4960   52.7853 C   0  0  0  0  0
    1.5484    9.4752   54.1492 C   0  0  0  0  0
    2.4862   10.0761   55.1814 C   0  0  0  0  0
    2.2960    9.3764   56.5159 C   0  0  0  0  0
    3.6166    9.1884   57.2659 C   0  0  0  0  0
    4.2673   10.5104   57.6672 C   0  0  0  0  0
    4.5464    8.2517   56.4894 C   0  0  0  0  0
    5.0343    7.0841   57.3477 C   0  0  0  0  0
    5.9073    6.1522   56.5427 C   0  0  0  0  0
    5.5154    5.4447   55.4668 C   0  0  0  0  0
    4.1125    5.5378   54.9515 C   0  0  0  0  0
    6.4825    4.5651   54.7199 C   0  0  0  0  0
    7.9394    4.6315   55.2163 C   0  0  0  0  0
    8.2111    3.7638   56.4397 C   0  0  0  0  0
    8.9223    4.4045   54.0910 C   0  0  0  0  0
    9.1589    3.2327   53.4810 C   0  0  0  0  0
    8.4795    1.9784   53.9009 C   0  0  0  0  0
   10.0866    3.2036   52.3028 C   0  0  0  0  0
    4.3780    5.8925   59.1306 C   0  0  0  0  0
    3.2600    6.0536   60.1990 C   0  0  0  0  0
    2.5984    4.7083   60.5320 C   0  0  0  0  0
    3.6569    3.6585   60.8955 C   0  0  0  0  0
    5.0064    3.9799   60.2379 C   0  0  0  0  0
    5.8365    2.7157   60.1133 C   0  0  0  0  0
    7.3270    6.2662   40.4051 O   0  0  0  0  0
    5.0391    6.4624   40.1257 O   0  0  0  0  0
   11.0215    2.1800   52.4666 O   0  0  0  0  0
    6.0039    3.2564   54.6702 O   0  0  0  0  0
    3.9456    6.3852   57.8884 O   0  0  0  0  0
    7.1552    3.0526   59.7897 O   0  0  0  0  0
    4.8078    4.5537   58.9657 O   0  0  0  0  0
    3.8114    3.6035   62.2809 O   0  0  0  0  0
    1.8556    4.2619   59.4372 O   0  0  0  0  0
    2.3096    7.0080   59.8337 O   0  0  0  0  0
    5.6343    8.9294   55.9168 O   0  0  0  0  0
    1.3744   10.0675   57.3039 O   0  0  0  0  0
    0.3190   10.1428   54.1469 O   0  0  0  0  0
   -0.2000   11.7293   51.0962 O   0  0  0  0  0
   -1.4038   15.3891   47.9895 O   0  0  0  0  0
   -1.8037   15.3518   44.9479 O   0  0  0  0  0
   -1.7336   14.2278   42.3489 O   0  0  0  0  0
    2.0985   13.1001   41.0207 O   0  0  0  0  0
    3.8589   11.3312   43.5471 O   0  0  0  0  0
    3.1645    9.8388   39.5866 O   0  0  0  0  0
   10.6149    0.8201   43.5759 O   0  0  0  0  0
    9.0230    3.3385   46.9391 O   0  0  0  0  0
    3.8082    9.1204   33.2183 N   0  0  0  0  0
  1  2  1  0  0  0
  2  3  1  0  0  0
  5  4  1  0  0  0
  5  6  1  0  0  0
  6  7  1  0  0  0
  7  8  1  0  0  0
  7 94  1  0  0  0
  8  9  1  0  0  0
  8 10  1  0  0  0
 10 11  1  0  0  0
 10 93  1  0  0  0
 11 12  1  0  0  0
 12 13  1  0  0  0
 13 14  1  0  0  0
 14 15  1  0  0  0
 15 16  1  0  0  0
 16 74  1  0  0  0
 17 74  1  0  0  0
 17 18  1  0  0  0
 17 26  1  0  0  0
 18 19  1  0  0  0
 18 20  1  0  0  0
 20 21  1  0  0  0
 21 22  1  0  0  0
 22 23  1  0  0  0
 23 24  1  0  0  0
 24 25  1  0  0  0
 25 95  1  0  0  0
 26 27  1  0  0  0
 26 28  1  0  0  0
 28 29  1  0  0  0
 28 92  1  0  0  0
 29 30  1  0  0  0
 30 31  1  0  0  0
 30 91  1  0  0  0
 31 32  1  0  0  0
 32 33  1  0  0  0
 32 90  1  0  0  0
 33 34  1  0  0  0
 33 35  1  0  0  0
 35 36  1  0  0  0
 35 89  1  0  0  0
 36 37  1  0  0  0
 36 38  1  0  0  0
 38 39  1  0  0  0
 38 88  1  0  0  0
 39 40  1  0  0  0
 40 41  1  0  0  0
 40 87  1  0  0  0
 41 42  1  0  0  0
 42 43  1  0  0  0
 43 44  1  0  0  0
 43 45  1  0  0  0
 45 46  1  0  0  0
 45 86  1  0  0  0
 46 47  1  0  0  0
 46 48  1  0  0  0
 50 49  1  0  0  0
 50 51  1  0  0  0
 50 85  1  0  0  0
 51 52  1  0  0  0
 52 53  1  0  0  0
 52 84  1  0  0  0
 53 54  1  0  0  0
 53 55  1  0  0  0
 55 56  1  0  0  0
 55 83  1  0  0  0
 56 57  1  0  0  0
 56 77  1  0  0  0
 59 58  1  0  0  0
 60 58  1  0  0  0
 60 61  1  0  0  0
 60 76  1  0  0  0
 61 62  1  0  0  0
 61 63  1  0  0  0
 65 64  1  0  0  0
 66 64  1  0  0  0
 66 75  1  0  0  0
 66  2  1  0  0  0
 67 77  1  0  0  0
 67 68  1  0  0  0
 67 79  1  0  0  0
 68 69  1  0  0  0
 68 82  1  0  0  0
 69 70  1  0  0  0
 69 81  1  0  0  0
 70 71  1  0  0  0
 70 80  1  0  0  0
 71 72  1  0  0  0
 71 79  1  0  0  0
 72 78  1  0  0  0
  3  4  2  0  0  0
 16 73  2  0  0  0
 48 49  2  0  0  0
 57 58  2  0  0  0
 63 64  2  0  0  0
M  END
> <rmsd>
0.706712663

$$$$
MolPort-044-561-736 PubChem-132285221


 95 96  0  0  0  0  0  0  0  0999 V2000
    8.7522    3.7025   50.6567 C   0  0  0  0  0
    9.5429    2.4971   51.1404 C   0  0  0  0  0
   10.5160    2.1285   50.0705 C   0  0  0  0  0
   10.4546    0.9264   49.5101 C   0  0  0  0  0
   11.4047    0.5490   48.4226 C   0  0  0  0  0
   10.6621    0.2798   47.1186 C   0  0  0  0  0
   10.3393    1.5762   46.3668 C   0  0  0  0  0
    9.8169    1.3085   44.9517 C   0  0  0  0  0
    8.6082    0.3704   44.9433 C   0  0  0  0  0
   10.9331    0.8675   43.9952 C   0  0  0  0  0
   10.6502    1.3096   42.5531 C   0  0  0  0  0
    9.5141    0.5244   41.9129 C   0  0  0  0  0
    8.6217    1.4249   41.0780 C   0  0  0  0  0
    7.8263    2.3418   42.0005 C   0  0  0  0  0
    6.5518    2.8267   41.3173 C   0  0  0  0  0
    6.7523    4.0089   40.4152 C   0  0  0  0  0
    5.6492    5.7706   39.0136 C   0  0  0  0  0
    6.6409    5.7000   37.8270 C   0  0  0  0  0
    6.4938    6.9155   36.9271 C   0  0  0  0  0
    6.3883    4.4343   37.0121 C   0  0  0  0  0
    7.6112    4.0109   36.2062 C   0  0  0  0  0
    7.8292    4.8851   34.9814 C   0  0  0  0  0
    6.6894    4.7055   33.9860 C   0  0  0  0  0
    6.9035    5.5862   32.7721 C   0  0  0  0  0
    5.6424    5.6232   31.9290 C   0  0  0  0  0
    5.7166    7.0247   39.9118 C   0  0  0  0  0
    7.1469    7.4030   40.2852 C   0  0  0  0  0
    4.9634    8.2213   39.3110 C   0  0  0  0  0
    4.7998    9.3685   40.3169 C   0  0  0  0  0
    3.8832    9.0175   41.4866 C   0  0  0  0  0
    2.4024    9.1979   41.1487 C   0  0  0  0  0
    1.9801   10.6628   40.9834 C   0  0  0  0  0
    0.4537   10.8018   40.9692 C   0  0  0  0  0
   -0.1209   10.1473   39.7211 C   0  0  0  0  0
    0.0210   12.2745   41.0531 C   0  0  0  0  0
    0.4797   12.9319   42.3581 C   0  0  0  0  0
    0.9279   14.3573   42.0854 C   0  0  0  0  0
   -0.5465   12.8411   43.4911 C   0  0  0  0  0
    0.1466   13.0119   44.8332 C   0  0  0  0  0
   -0.8431   12.9212   45.9849 C   0  0  0  0  0
   -0.2478   12.1844   47.1784 C   0  0  0  0  0
    0.9658   12.9073   47.7656 C   0  0  0  0  0
    1.7301   12.0275   48.7616 C   0  0  0  0  0
    2.2338   10.7398   48.1116 C   0  0  0  0  0
    0.9628   11.8075   50.0789 C   0  0  0  0  0
    1.8412   11.3513   51.2543 C   0  0  0  0  0
    2.9622   12.3404   51.5305 C   0  0  0  0  0
    2.3958    9.9678   51.0477 C   0  0  0  0  0
    2.2297    8.9686   51.9243 C   0  0  0  0  0
    1.5507    9.0894   53.2581 C   0  0  0  0  0
    2.4376    9.8241   54.2478 C   0  0  0  0  0
    2.2089    9.2767   55.6460 C   0  0  0  0  0
    3.5029    9.2042   56.4595 C   0  0  0  0  0
    4.1144   10.5772   56.7301 C   0  0  0  0  0
    4.4781    8.2058   55.8293 C   0  0  0  0  0
    4.9534    7.1544   56.8327 C   0  0  0  0  0
    5.8728    6.1564   56.1715 C   0  0  0  0  0
    5.5350    5.3227   55.1703 C   0  0  0  0  0
    4.1513    5.3258   54.5976 C   0  0  0  0  0
    6.5453    4.3852   54.5643 C   0  0  0  0  0
    7.9807    4.5395   55.1020 C   0  0  0  0  0
    8.2207    3.8228   56.4256 C   0  0  0  0  0
    9.0098    4.2076   54.0462 C   0  0  0  0  0
    9.2902    2.9795   53.5832 C   0  0  0  0  0
    8.6175    1.7665   54.1192 C   0  0  0  0  0
   10.2627    2.8369   52.4502 C   0  0  0  0  0
    4.2505    6.1592   58.7154 C   0  0  0  0  0
    3.0898    6.4162   59.7175 C   0  0  0  0  0
    2.4398    5.1034   60.1783 C   0  0  0  0  0
    3.5019    4.1252   60.6973 C   0  0  0  0  0
    4.8697    4.3992   60.0563 C   0  0  0  0  0
    5.7262    3.1475   60.1071 C   0  0  0  0  0
    7.9065    4.4653   40.1886 O   0  0  0  0  0
    5.6279    4.5783   39.8064 O   0  0  0  0  0
   11.2085    1.8593   52.7636 O   0  0  0  0  0
    6.0921    3.0692   54.6475 O   0  0  0  0  0
    3.8573    6.4978   57.4103 O   0  0  0  0  0
    7.0502    3.4742   59.7948 O   0  0  0  0  0
    4.7098    4.8201   58.7205 O   0  0  0  0  0
    3.6043    4.2315   62.0846 O   0  0  0  0  0
    1.7474    4.5192   59.1157 O   0  0  0  0  0
    2.1374    7.3019   59.2113 O   0  0  0  0  0
    5.5750    8.8377   55.2224 O   0  0  0  0  0
    1.2458   10.0327   56.3160 O   0  0  0  0  0
    0.3108    9.7253   53.1352 O   0  0  0  0  0
   -0.1191   10.9427   49.9062 O   0  0  0  0  0
   -1.2676   14.1982   46.3598 O   0  0  0  0  0
   -1.5501   13.8066   43.3300 O   0  0  0  0  0
   -1.3608   12.3960   40.8810 O   0  0  0  0  0
    2.5385   11.2088   39.8293 O   0  0  0  0  0
    4.2320    9.7777   42.6033 O   0  0  0  0  0
    3.7160    7.8297   38.8173 O   0  0  0  0  0
   11.1663   -0.5115   44.0782 O   0  0  0  0  0
    9.4028    2.3376   47.0715 O   0  0  0  0  0
    4.6154    6.4060   32.6004 N   0  0  0  0  0
  1  2  1  0  0  0
  2  3  1  0  0  0
  5  4  1  0  0  0
  5  6  1  0  0  0
  6  7  1  0  0  0
  7  8  1  0  0  0
  7 94  1  0  0  0
  8  9  1  0  0  0
  8 10  1  0  0  0
 10 11  1  0  0  0
 10 93  1  0  0  0
 11 12  1  0  0  0
 12 13  1  0  0  0
 13 14  1  0  0  0
 14 15  1  0  0  0
 15 16  1  0  0  0
 16 74  1  0  0  0
 17 74  1  0  0  0
 17 18  1  0  0  0
 17 26  1  0  0  0
 18 19  1  0  0  0
 18 20  1  0  0  0
 20 21  1  0  0  0
 21 22  1  0  0  0
 22 23  1  0  0  0
 23 24  1  0  0  0
 24 25  1  0  0  0
 25 95  1  0  0  0
 26 27  1  0  0  0
 26 28  1  0  0  0
 28 29  1  0  0  0
 28 92  1  0  0  0
 29 30  1  0  0  0
 30 31  1  0  0  0
 30 91  1  0  0  0
 31 32  1  0  0  0
 32 33  1  0  0  0
 32 90  1  0  0  0
 33 34  1  0  0  0
 33 35  1  0  0  0
 35 36  1  0  0  0
 35 89  1  0  0  0
 36 37  1  0  0  0
 36 38  1  0  0  0
 38 39  1  0  0  0
 38 88  1  0  0  0
 39 40  1  0  0  0
 40 41  1  0  0  0
 40 87  1  0  0  0
 41 42  1  0  0  0
 42 43  1  0  0  0
 43 44  1  0  0  0
 43 45  1  0  0  0
 45 46  1  0  0  0
 45 86  1  0  0  0
 46 47  1  0  0  0
 46 48  1  0  0  0
 50 49  1  0  0  0
 50 51  1  0  0  0
 50 85  1  0  0  0
 51 52  1  0  0  0
 52 53  1  0  0  0
 52 84  1  0  0  0
 53 54  1  0  0  0
 53 55  1  0  0  0
 55 56  1  0  0  0
 55 83  1  0  0  0
 56 57  1  0  0  0
 56 77  1  0  0  0
 59 58  1  0  0  0
 60 58  1  0  0  0
 60 61  1  0  0  0
 60 76  1  0  0  0
 61 62  1  0  0  0
 61 63  1  0  0  0
 65 64  1  0  0  0
 66 64  1  0  0  0
 66 75  1  0  0  0
 66  2  1  0  0  0
 67 77  1  0  0  0
 67 68  1  0  0  0
 67 79  1  0  0  0
 68 69  1  0  0  0
 68 82  1  0  0  0
 69 70  1  0  0  0
 69 81  1  0  0  0
 70 71  1  0  0  0
 70 80  1  0  0  0
 71 72  1  0  0  0
 71 79  1  0  0  0
 72 78  1  0  0  0
  3  4  2  0  0  0
 16 73  2  0  0  0
 48 49  2  0  0  0
 57 58  2  0  0  0
 63 64  2  0  0  0
M  END
> <rmsd>
0.756364405

$$$$
MolPort-021-804-730 MCULE-4596202105 PubChem-71694456


 75 82  0  0  0  0  0  0  0  0999 V2000
    1.8370    7.7982   49.1913 C   0  0  0  0  0
    1.4421    8.6663   46.8645 C   0  0  0  0  0
    0.1916    8.7959   45.9817 C   0  0  0  0  0
   -0.9204    6.7420   45.2244 C   0  0  0  0  0
   -1.0799    5.6702   44.2360 C   0  0  0  0  0
   -0.3485    5.5968   43.1266 C   0  0  0  0  0
   -0.5250    4.5113   42.1467 C   0  0  0  0  0
   -1.4555    3.4740   42.3528 C   0  0  0  0  0
   -1.6180    2.4668   41.3946 C   0  0  0  0  0
   -0.8559    2.4870   40.2237 C   0  0  0  0  0
    0.0727    3.5138   40.0162 C   0  0  0  0  0
    0.2414    4.5183   40.9774 C   0  0  0  0  0
    0.1219   10.1231   45.2370 C   0  0  0  0  0
   -0.9436   11.0736   43.4935 C   0  0  0  0  0
   -2.2268   11.8641   43.2581 C   0  0  0  0  0
   -2.0070   12.8752   42.1236 C   0  0  0  0  0
   -1.3738   12.1941   40.9047 C   0  0  0  0  0
   -0.2285   11.2433   41.3046 C   0  0  0  0  0
    1.0631   11.9944   41.6021 C   0  0  0  0  0
    0.2598   11.2836   46.2406 C   0  0  0  0  0
    1.0862   10.9168   47.4805 C   0  0  0  0  0
    0.2121   10.6059   48.6935 C   0  0  0  0  0
    1.1988    7.2964   50.3246 C   0  0  0  0  0
    1.8740    7.2269   51.5443 C   0  0  0  0  0
    1.7385    6.7707   53.8280 C   0  0  0  0  0
    0.8324    6.3804   54.9085 C   0  0  0  0  0
    0.2036    7.3720   55.6820 C   0  0  0  0  0
   -0.7137    7.0080   56.6734 C   0  0  0  0  0
   -1.0152    5.6541   56.8812 C   0  0  0  0  0
   -0.3991    4.6689   56.0975 C   0  0  0  0  0
    0.5167    5.0313   55.1059 C   0  0  0  0  0
    3.1012    7.1216   54.0314 C   0  0  0  0  0
    3.1235    6.8683   56.5274 C   0  0  0  0  0
    3.5458    5.5661   57.1928 C   0  0  0  0  0
    4.3699    3.6065   56.4872 C   0  0  0  0  0
    3.8953    2.1613   56.2780 C   0  0  0  0  0
    5.0731    1.1853   56.4638 C   0  0  0  0  0
    6.3101    1.6689   55.7010 C   0  0  0  0  0
    6.5196    3.1728   55.9557 C   0  0  0  0  0
    7.7532    3.6915   55.2319 C   0  0  0  0  0
    2.6988    5.4037   58.4732 C   0  0  0  0  0
    2.5736    6.6963   59.2874 C   0  0  0  0  0
    2.3815    7.9007   58.3529 C   0  0  0  0  0
    2.3390    9.2078   59.1225 C   0  0  0  0  0
    3.8386    7.5541   52.9151 C   0  0  0  0  0
    3.2209    7.6378   51.6505 C   0  0  0  0  0
    3.8706    8.1264   50.4916 C   0  0  0  0  0
    3.1748    8.2122   49.2797 C   0  0  0  0  0
    1.0856    7.8962   48.0165 O   0  0  0  0  0
    0.0949    7.6948   45.0870 O   0  0  0  0  0
   -1.7145    6.7925   46.2065 O   0  0  0  0  0
   -1.0073    1.4869   39.2717 O   0  0  0  0  0
   -1.1195   10.2047   44.5765 O   0  0  0  0  0
   -2.6232   12.5134   44.4205 O   0  0  0  0  0
   -1.1985   13.9322   42.5569 O   0  0  0  0  0
   -2.3378   11.4738   40.2163 O   0  0  0  0  0
    2.1284   11.0936   41.7158 O   0  0  0  0  0
   -0.5996   10.3379   42.3357 O   0  0  0  0  0
    0.8440   12.3865   45.6023 O   0  0  0  0  0
   -0.5058   11.7342   49.0853 O   0  0  0  0  0
    2.0433    9.9106   47.2169 O   0  0  0  0  0
    1.2126    6.8112   52.6117 O   0  0  0  0  0
   -1.9213    5.2846   57.8667 O   0  0  0  0  0
    3.7680    7.0581   55.2756 O   0  0  0  0  0
    3.2957    4.4904   56.3229 O   0  0  0  0  0
    2.8506    1.8444   57.1518 O   0  0  0  0  0
    5.3943    1.0477   57.8176 O   0  0  0  0  0
    6.1350    1.4157   54.3382 O   0  0  0  0  0
    5.3864    3.9101   55.5514 O   0  0  0  0  0
    3.2414    4.3960   59.2707 O   0  0  0  0  0
    1.4660    6.5912   60.1190 O   0  0  0  0  0
    3.5308    9.4267   59.8132 O   0  0  0  0  0
    3.3935    7.9456   57.3846 O   0  0  0  0  0
    5.0514    7.8798   53.0670 O   0  0  0  0  0
    5.1918    8.5685   50.5325 O   0  0  0  0  0
  1 49  1  0  0  0
  2 49  1  0  0  0
  2  3  1  0  0  0
  2 61  1  0  0  0
  3 50  1  0  0  0
  3 13  1  0  0  0
  4 50  1  0  0  0
  4  5  1  0  0  0
  6  7  1  0  0  0
  8  9  1  0  0  0
 10 52  1  0  0  0
 10 11  1  0  0  0
 12  7  1  0  0  0
 13 53  1  0  0  0
 13 20  1  0  0  0
 14 53  1  0  0  0
 14 15  1  0  0  0
 14 58  1  0  0  0
 15 54  1  0  0  0
 15 16  1  0  0  0
 16 55  1  0  0  0
 16 17  1  0  0  0
 17 56  1  0  0  0
 17 18  1  0  0  0
 18 19  1  0  0  0
 18 58  1  0  0  0
 19 57  1  0  0  0
 20 59  1  0  0  0
 20 21  1  0  0  0
 21 22  1  0  0  0
 21 61  1  0  0  0
 22 60  1  0  0  0
 23 24  1  0  0  0
 24 62  1  0  0  0
 25 62  1  0  0  0
 25 26  1  0  0  0
 27 28  1  0  0  0
 29 63  1  0  0  0
 29 30  1  0  0  0
 31 26  1  0  0  0
 32 64  1  0  0  0
 32 45  1  0  0  0
 33 64  1  0  0  0
 33 34  1  0  0  0
 33 73  1  0  0  0
 34 65  1  0  0  0
 34 41  1  0  0  0
 35 65  1  0  0  0
 35 36  1  0  0  0
 35 69  1  0  0  0
 36 66  1  0  0  0
 36 37  1  0  0  0
 37 67  1  0  0  0
 37 38  1  0  0  0
 38 68  1  0  0  0
 38 39  1  0  0  0
 39 40  1  0  0  0
 39 69  1  0  0  0
 41 70  1  0  0  0
 41 42  1  0  0  0
 42 71  1  0  0  0
 42 43  1  0  0  0
 43 44  1  0  0  0
 43 73  1  0  0  0
 44 72  1  0  0  0
 45 46  1  0  0  0
 46 47  1  0  0  0
 47 75  1  0  0  0
 48  1  1  0  0  0
  1 23  2  0  0  0
  4 51  2  0  0  0
  5  6  2  0  0  0
  7  8  2  0  0  0
  9 10  2  0  0  0
 11 12  2  0  0  0
 25 32  2  0  0  0
 26 27  2  0  0  0
 28 29  2  0  0  0
 30 31  2  0  0  0
 45 74  2  0  0  0
 46 24  2  0  0  0
 47 48  2  0  0  0
M  END
> <rmsd>
0.752365053

$$$$
MolPort-016-936-925 ChemDiv-V025-8727 MCULE-8003633244 PubChem-46148983 ZINC000103372468


 41 46  0  0  0  0  0  0  0  0999 V2000
   -1.7657   13.9279   42.5956 C   0  0  0  0  0
   -0.8050   13.3666   44.8050 C   0  0  0  0  0
   -1.6726   14.2397   45.4795 C   0  0  0  0  0
   -1.6022   14.3679   46.8685 C   0  0  0  0  0
   -0.6653   13.6260   47.5913 C   0  0  0  0  0
    0.2092   12.7480   46.9337 C   0  0  0  0  0
    0.1297   12.6269   45.5366 C   0  0  0  0  0
    1.1935   11.9631   47.7088 C   0  0  0  0  0
    3.0015   10.5178   49.2262 C   0  0  0  0  0
    2.9843   10.3551   47.8378 C   0  0  0  0  0
    2.0753   11.0820   47.0748 C   0  0  0  0  0
    3.9479    9.9779   51.4942 C   0  0  0  0  0
    3.8711    8.6267   52.1954 C   0  0  0  0  0
    4.8415    7.5149   50.1701 C   0  0  0  0  0
    4.9019    8.8647   49.4592 C   0  0  0  0  0
    5.8529    7.0804   52.4328 C   0  0  0  0  0
    5.8422    7.2360   53.9207 C   0  0  0  0  0
    3.6294    6.3896   54.7018 C   0  0  0  0  0
    3.2829    6.4792   56.1489 C   0  0  0  0  0
    3.4815    7.6924   56.8457 C   0  0  0  0  0
    3.1844    7.7848   58.2176 C   0  0  0  0  0
    2.6963    6.6427   58.8474 C   0  0  0  0  0
    1.8888    5.1266   60.3441 C   0  0  0  0  0
    2.5092    5.4755   58.1802 C   0  0  0  0  0
    2.7922    5.3451   56.8229 C   0  0  0  0  0
    5.6198    4.8612   54.7579 C   0  0  0  0  0
    7.0485    4.6605   55.0702 C   0  0  0  0  0
    7.6897    3.4300   55.0961 C   0  0  0  0  0
    9.0346    3.5189   55.4836 C   0  0  0  0  0
    9.4655    4.8101   55.7782 C   0  0  0  0  0
   -0.8505   13.2146   43.4167 O   0  0  0  0  0
    6.7329    6.3490   51.9042 O   0  0  0  0  0
    2.3334    6.4794   60.1695 O   0  0  0  0  0
    2.0181    4.5224   59.0494 O   0  0  0  0  0
    4.8675    3.8507   54.6982 O   0  0  0  0  0
    1.2524   12.0864   49.0637 N   0  0  0  0  0
    2.1237   11.3891   49.7953 N   0  0  0  0  0
    3.9184    9.7755   50.0469 N   0  0  0  0  0
    4.8636    7.7240   51.6158 N   0  0  0  0  0
    5.0617    6.1700   54.5375 N   0  0  0  0  0
    8.1503    5.8331   55.5513 S   0  0  0  0  0
  1 31  1  0  0  0
  2 31  1  0  0  0
  3  4  1  0  0  0
  5  6  1  0  0  0
  6  8  1  0  0  0
  7  2  1  0  0  0
  9 10  1  0  0  0
  9 38  1  0  0  0
 11  8  1  0  0  0
 12 38  1  0  0  0
 12 13  1  0  0  0
 13 39  1  0  0  0
 14 39  1  0  0  0
 14 15  1  0  0  0
 15 38  1  0  0  0
 17 16  1  0  0  0
 17 40  1  0  0  0
 18 40  1  0  0  0
 18 19  1  0  0  0
 20 21  1  0  0  0
 22 33  1  0  0  0
 23 33  1  0  0  0
 23 34  1  0  0  0
 24 34  1  0  0  0
 24 22  1  0  0  0
 25 19  1  0  0  0
 26 27  1  0  0  0
 27 41  1  0  0  0
 28 29  1  0  0  0
 30 41  1  0  0  0
 36 37  1  0  0  0
 39 16  1  0  0  0
 40 26  1  0  0  0
  2  3  2  0  0  0
  4  5  2  0  0  0
  6  7  2  0  0  0
  8 36  2  0  0  0
  9 37  2  0  0  0
 10 11  2  0  0  0
 16 32  2  0  0  0
 19 20  2  0  0  0
 21 22  2  0  0  0
 24 25  2  0  0  0
 26 35  2  0  0  0
 27 28  2  0  0  0
 29 30  2  0  0  0
M  END
> <rmsd>
0.805804253

$$$$
MolPort-047-919-803 CHEMBL3188499 PubChem-11756905 PubChem-78412203 PubChem-78412767 PubChem-78412768


 38 42  0  0  0  0  0  0  0  0999 V2000
    7.8011    4.3522   55.0363 C   0  0  0  0  0
    6.3617    4.7968   54.8707 C   0  0  0  0  0
    6.0408    4.9514   53.3899 C   0  0  0  0  0
    4.2663    6.4799   52.5882 C   0  0  0  0  0
    2.9010    6.7614   52.4906 C   0  0  0  0  0
    2.4654    7.9407   51.8800 C   0  0  0  0  0
    3.3900    8.8599   51.3568 C   0  0  0  0  0
    3.9107   11.0127   50.1529 C   0  0  0  0  0
    3.4852   11.4411   48.7453 C   0  0  0  0  0
    1.9786   11.7194   48.6187 C   0  0  0  0  0
    1.0815   13.0725   46.7523 C   0  0  0  0  0
    0.4998   11.9540   46.1338 C   0  0  0  0  0
   -0.1952   12.0975   44.9300 C   0  0  0  0  0
   -0.3188   13.3613   44.3301 C   0  0  0  0  0
   -1.6250   12.4882   42.3892 C   0  0  0  0  0
    0.2625   14.4732   44.9487 C   0  0  0  0  0
    0.9585   14.3297   46.1526 C   0  0  0  0  0
    1.2570   11.7253   49.9646 C   0  0  0  0  0
    1.5093   10.4044   50.6884 C   0  0  0  0  0
    4.7609    8.5702   51.4560 C   0  0  0  0  0
    5.1966    7.3916   52.0667 C   0  0  0  0  0
    6.1276    6.1390   55.6356 C   0  0  0  0  0
    4.3675    6.2975   57.5595 C   0  0  0  0  0
    3.5832    5.2229   57.9961 C   0  0  0  0  0
    4.7904    4.5034   56.4639 C   0  0  0  0  0
    4.6710    5.2946   53.2066 O   0  0  0  0  0
    1.7770   12.9625   47.9597 O   0  0  0  0  0
   -1.0101   13.5434   43.1250 O   0  0  0  0  0
    1.9559    4.2980   59.3709 O   0  0  0  0  0
    2.4215    6.4904   59.7170 O   0  0  0  0  0
    5.4787    3.8353   55.4799 O   0  0  0  0  0
    2.9402   10.0729   50.7211 N   0  0  0  0  0
    5.1088    5.7603   56.5859 N   0  0  0  0  0
    2.6135    5.3065   59.0424 N   0  0  0  0  0
    3.8392    4.0742   57.3067 N   0  0  0  0  0
   -2.2247   13.0149   41.2612 F   0  0  0  0  0
   -0.6718   11.5623   42.0008 F   0  0  0  0  0
   -2.5900   11.8663   43.1634 F   0  0  0  0  0
  2  1  1  0  0  0
  2  3  1  0  0  0
  2 22  1  0  0  0
  2 31  1  0  0  0
  3 26  1  0  0  0
  4 26  1  0  0  0
  5  6  1  0  0  0
  7 32  1  0  0  0
  7 20  1  0  0  0
  8 32  1  0  0  0
  8  9  1  0  0  0
  9 10  1  0  0  0
 10 27  1  0  0  0
 10 18  1  0  0  0
 11 27  1  0  0  0
 12 13  1  0  0  0
 14 28  1  0  0  0
 14 16  1  0  0  0
 15 28  1  0  0  0
 15 36  1  0  0  0
 15 37  1  0  0  0
 15 38  1  0  0  0
 17 11  1  0  0  0
 18 19  1  0  0  0
 19 32  1  0  0  0
 21  4  1  0  0  0
 22 33  1  0  0  0
 24 34  1  0  0  0
 24 35  1  0  0  0
 25 31  1  0  0  0
 25 33  1  0  0  0
 33 23  1  0  0  0
 34 30  1  0  0  0
  4  5  2  0  0  0
  6  7  2  0  0  0
 11 12  2  0  0  0
 13 14  2  0  0  0
 16 17  2  0  0  0
 20 21  2  0  0  0
 23 24  2  0  0  0
 25 35  2  0  0  0
 34 29  2  0  0  0
M  CHG  2  34   1  30  -1
M  END
> <rmsd>
0.702884376

$$$$
MolPort-047-116-177 MCULE-2154352754 PubChem-132980807


 95 96  0  0  0  0  0  0  0  0999 V2000
   11.3715    3.3130   52.8695 C   0  0  0  0  0
    9.9438    3.5984   53.3047 C   0  0  0  0  0
    8.9981    3.3909   52.1324 C   0  0  0  0  0
    8.4164    4.7308   51.7190 C   0  0  0  0  0
    7.6517    4.6383   50.4070 C   0  0  0  0  0
    8.5789    4.2858   49.2550 C   0  0  0  0  0
    7.9361    4.5909   47.9071 C   0  0  0  0  0
    7.8194    6.1037   47.6928 C   0  0  0  0  0
    6.8593    6.4376   46.5444 C   0  0  0  0  0
    6.4720    7.9211   46.5553 C   0  0  0  0  0
    5.6144    8.2936   45.3391 C   0  0  0  0  0
    5.5679    9.8043   45.1639 C   0  0  0  0  0
    5.1028   10.1692   43.7657 C   0  0  0  0  0
    3.5837   10.2247   43.7094 C   0  0  0  0  0
    3.1188   10.1432   42.2574 C   0  0  0  0  0
    1.7426   10.7777   42.0508 C   0  0  0  0  0
    1.7368   12.2999   42.2330 C   0  0  0  0  0
   -0.3262   13.5308   42.8267 C   0  0  0  0  0
    0.0926   13.7090   44.2532 C   0  0  0  0  0
   -0.7557   12.8251   45.1573 C   0  0  0  0  0
   -0.4926   13.1377   46.6190 C   0  0  0  0  0
   -1.0914   14.4815   46.9937 C   0  0  0  0  0
   -1.0755   14.6671   48.5034 C   0  0  0  0  0
   -2.3484   14.1084   49.1405 C   0  0  0  0  0
   -2.4167   14.4224   50.6393 C   0  0  0  0  0
   -3.8036   14.0815   51.1907 C   0  0  0  0  0
   -3.8825   14.2639   52.7067 C   0  0  0  0  0
   -5.0763   13.5158   53.3013 C   0  0  0  0  0
   -5.0023   12.0424   53.0167 C   0  0  0  0  0
   -4.5921   11.1395   53.9173 C   0  0  0  0  0
   -4.1241   11.5062   55.2979 C   0  0  0  0  0
   -2.6780   11.0406   55.4932 C   0  0  0  0  0
   -2.1420   11.3200   56.8723 C   0  0  0  0  0
   -1.7360   10.3334   57.6852 C   0  0  0  0  0
   -1.8098    8.8669   57.3390 C   0  0  0  0  0
   -1.4814    7.9599   58.5375 C   0  0  0  0  0
   -0.0275    7.9435   58.9263 C   0  0  0  0  0
    0.6548    6.8098   58.7346 C   0  0  0  0  0
    2.1139    6.6314   59.0490 C   0  0  0  0  0
    2.6960    5.3445   58.4310 C   0  0  0  0  0
    4.1806    5.1882   58.7898 C   0  0  0  0  0
    4.6391    3.7289   58.9103 C   0  0  0  0  0
    4.5087    2.9076   57.6167 C   0  0  0  0  0
    5.6578    3.1225   56.6309 C   0  0  0  0  0
    6.8444    2.2864   57.0254 C   0  0  0  0  0
    8.0202    2.3234   56.3922 C   0  0  0  0  0
    8.3054    3.2141   55.2143 C   0  0  0  0  0
    9.5758    2.7422   54.5179 C   0  0  0  0  0
    8.4745    4.6458   55.6919 C   0  0  0  0  0
    5.0539    5.9986   57.8402 C   0  0  0  0  0
    1.9166    5.7993   61.1963 C   0  0  0  0  0
    1.0444    6.3382   62.3449 C   0  0  0  0  0
    1.3284    5.5991   63.6699 C   0  0  0  0  0
    1.6413    4.1081   63.4991 C   0  0  0  0  0
    2.3930    3.8539   62.1713 C   0  0  0  0  0
    3.3866    2.6988   62.2007 C   0  0  0  0  0
    0.6294    9.1649   59.4931 C   0  0  0  0  0
   -0.9426    8.5210   56.1284 C   0  0  0  0  0
   -2.0283   12.7291   57.3558 C   0  0  0  0  0
   -5.0485   10.8638   56.3263 C   0  0  0  0  0
   -1.3173   13.6827   51.4052 C   0  0  0  0  0
    2.8310   12.9932   41.4045 C   0  0  0  0  0
    2.9366   14.4709   41.7415 C   0  0  0  0  0
    2.7535   12.7450   39.8922 C   0  0  0  0  0
    1.4907   13.3036   39.2477 C   0  0  0  0  0
    1.6883   14.7359   38.7782 C   0  0  0  0  0
    2.5663   14.7923   37.5329 C   0  0  0  0  0
    1.8383   14.2355   36.3157 C   0  0  0  0  0
    0.8160   15.2254   35.7808 C   0  0  0  0  0
    0.6730   10.1173   42.9213 C   0  0  0  0  0
    5.7517    8.2743   47.8548 C   0  0  0  0  0
    9.1788    6.7857   47.5264 C   0  0  0  0  0
    0.4575   12.8279   41.9047 O   0  0  0  0  0
   -1.4141   14.0318   42.4453 O   0  0  0  0  0
    9.4685    1.3966   54.1539 O   0  0  0  0  0
    5.2245    2.7511   55.3527 O   0  0  0  0  0
    5.9176    3.6453   59.4691 O   0  0  0  0  0
    1.9409    4.2343   58.8235 O   0  0  0  0  0
    2.4210    6.8542   60.4163 O   0  0  0  0  0
    2.9850    5.0272   61.6873 O   0  0  0  0  0
    4.5418    3.0557   62.8963 O   0  0  0  0  0
    2.3783    3.6577   64.5975 O   0  0  0  0  0
    0.2926    5.7802   64.5887 O   0  0  0  0  0
   -0.3019    6.2226   61.9943 O   0  0  0  0  0
   -2.2839    8.2624   59.6369 O   0  0  0  0  0
   -1.8455   11.6264   54.5350 O   0  0  0  0  0
   -4.7643   14.8907   50.5714 O   0  0  0  0  0
   -2.4487   12.7280   48.9320 O   0  0  0  0  0
    3.1095    8.8146   41.8356 O   0  0  0  0  0
    5.6297   11.4072   43.4164 O   0  0  0  0  0
    4.3202    7.7702   45.4515 O   0  0  0  0  0
    7.4354    6.1038   45.3145 O   0  0  0  0  0
    8.6798    3.9965   46.8781 O   0  0  0  0  0
    6.6276    3.6904   50.4961 O   0  0  0  0  0
    1.4981   16.3672   35.1997 N   0  0  0  0  0
  1  2  1  0  0  0
  2  3  1  0  0  0
  3  4  1  0  0  0
  4  5  1  0  0  0
  5  6  1  0  0  0
  5 94  1  0  0  0
  6  7  1  0  0  0
  7  8  1  0  0  0
  7 93  1  0  0  0
  8  9  1  0  0  0
  8 72  1  0  0  0
  9 10  1  0  0  0
  9 92  1  0  0  0
 10 11  1  0  0  0
 10 71  1  0  0  0
 11 12  1  0  0  0
 11 91  1  0  0  0
 12 13  1  0  0  0
 13 14  1  0  0  0
 13 90  1  0  0  0
 14 15  1  0  0  0
 15 16  1  0  0  0
 15 89  1  0  0  0
 16 17  1  0  0  0
 16 70  1  0  0  0
 17 73  1  0  0  0
 17 62  1  0  0  0
 18 73  1  0  0  0
 19 18  1  0  0  0
 19 20  1  0  0  0
 20 21  1  0  0  0
 21 22  1  0  0  0
 22 23  1  0  0  0
 23 24  1  0  0  0
 24 25  1  0  0  0
 24 88  1  0  0  0
 25 26  1  0  0  0
 25 61  1  0  0  0
 26 27  1  0  0  0
 26 87  1  0  0  0
 27 28  1  0  0  0
 28 29  1  0  0  0
 31 30  1  0  0  0
 31 32  1  0  0  0
 31 60  1  0  0  0
 32 33  1  0  0  0
 32 86  1  0  0  0
 35 34  1  0  0  0
 35 36  1  0  0  0
 35 58  1  0  0  0
 36 37  1  0  0  0
 36 85  1  0  0  0
 39 38  1  0  0  0
 39 40  1  0  0  0
 39 79  1  0  0  0
 40 41  1  0  0  0
 40 78  1  0  0  0
 41 42  1  0  0  0
 41 50  1  0  0  0
 42 43  1  0  0  0
 42 77  1  0  0  0
 43 44  1  0  0  0
 44 45  1  0  0  0
 44 76  1  0  0  0
 47 46  1  0  0  0
 47 48  1  0  0  0
 47 49  1  0  0  0
 48 75  1  0  0  0
 48  2  1  0  0  0
 51 79  1  0  0  0
 51 52  1  0  0  0
 51 80  1  0  0  0
 52 53  1  0  0  0
 52 84  1  0  0  0
 53 54  1  0  0  0
 53 83  1  0  0  0
 54 55  1  0  0  0
 54 82  1  0  0  0
 55 80  1  0  0  0
 55 56  1  0  0  0
 56 81  1  0  0  0
 57 37  1  0  0  0
 59 33  1  0  0  0
 62 63  1  0  0  0
 62 64  1  0  0  0
 64 65  1  0  0  0
 65 66  1  0  0  0
 66 67  1  0  0  0
 67 68  1  0  0  0
 68 69  1  0  0  0
 69 95  1  0  0  0
 18 74  2  0  0  0
 29 30  2  0  0  0
 33 34  2  0  0  0
 37 38  2  0  0  0
 45 46  2  0  0  0
M  END
> <rmsd>
0.711214125

$$$$
MolPort-004-949-376 PubChem-24207235


 78 85  0  0  0  0  0  0  0  0999 V2000
   -6.0611    5.9325   50.6361 C   0  0  0  0  0
   -6.1107    7.3871   50.3068 C   0  0  0  0  0
   -4.9582    8.1138   49.9366 C   0  0  0  0  0
   -5.0933    9.4660   49.5676 C   0  0  0  0  0
   -6.3720   10.0746   49.5240 C   0  0  0  0  0
   -6.5832   11.4273   48.9449 C   0  0  0  0  0
   -5.7480   11.8787   47.9986 C   0  0  0  0  0
   -5.2148   13.4182   46.0966 C   0  0  0  0  0
   -4.3487   12.4798   45.5037 C   0  0  0  0  0
   -3.6809   12.7870   44.3159 C   0  0  0  0  0
   -3.8728   14.0313   43.7057 C   0  0  0  0  0
   -4.7309   14.9701   44.2942 C   0  0  0  0  0
   -5.3989   14.6625   45.4862 C   0  0  0  0  0
   -2.8963   16.5462   40.4672 C   0  0  0  0  0
   -3.2575   17.8419   40.0886 C   0  0  0  0  0
   -2.6839   18.3850   38.9355 C   0  0  0  0  0
   -1.4481   16.3948   38.5987 C   0  0  0  0  0
   -0.1789   14.3364   38.1439 C   0  0  0  0  0
   -2.4806   20.2911   37.3851 C   0  0  0  0  0
   -7.8500   12.1179   49.2646 C   0  0  0  0  0
   -8.9673   11.3465   49.8303 C   0  0  0  0  0
   -8.8268   10.0448   50.1530 C   0  0  0  0  0
   -7.4950    9.3701   50.0078 C   0  0  0  0  0
   -7.3464    8.0277   50.3658 C   0  0  0  0  0
  -10.0313    9.3099   50.6877 C   0  0  0  0  0
  -10.4469    8.1762   49.7712 C   0  0  0  0  0
   -9.8179    8.8074   52.1035 C   0  0  0  0  0
   -3.6098    7.4732   49.9457 C   0  0  0  0  0
   -2.8308    7.4233   48.7713 C   0  0  0  0  0
   -1.5470    6.8983   48.8170 C   0  0  0  0  0
   -1.0184    6.3415   49.9846 C   0  0  0  0  0
    0.3824    5.8185   49.9724 C   0  0  0  0  0
    0.8559    5.1255   51.0167 C   0  0  0  0  0
    0.0186    4.8407   52.1890 C   0  0  0  0  0
   -1.3302    5.4565   52.3069 C   0  0  0  0  0
   -2.1626    5.1802   53.3274 C   0  0  0  0  0
   -0.9012    4.6851   55.4862 C   0  0  0  0  0
   -0.6172    3.7266   56.4635 C   0  0  0  0  0
    0.3044    4.0021   57.4765 C   0  0  0  0  0
    0.9479    5.2438   57.5189 C   0  0  0  0  0
    0.6669    6.2086   56.5416 C   0  0  0  0  0
   -0.2586    5.9329   55.5275 C   0  0  0  0  0
    4.3928    4.9391   57.3558 C   0  0  0  0  0
    3.8224    3.7223   56.9716 C   0  0  0  0  0
    4.5849    2.8265   56.2092 C   0  0  0  0  0
    6.4038    4.3466   56.2525 C   0  0  0  0  0
    8.5292    3.8136   55.1245 C   0  0  0  0  0
    2.7148    1.2136   56.0342 C   0  0  0  0  0
   -1.8249    6.2648   51.1441 C   0  0  0  0  0
   -3.0944    6.9125   51.1345 C   0  0  0  0  0
    1.3073    6.0493   48.7967 C   0  0  0  0  0
    1.5121    7.5301   48.5204 C   0  0  0  0  0
    0.8365    5.3215   47.5474 C   0  0  0  0  0
   -3.3431    7.9081   47.4526 C   0  0  0  0  0
   -5.9410   13.1063   47.2919 N   0  0  0  0  0
   -3.4531   15.9775   41.6573 N   0  0  0  0  0
   -1.7902   17.6522   38.2172 N   0  0  0  0  0
   -2.0019   15.8491   39.7160 N   0  0  0  0  0
   -1.8484    4.3597   54.4604 N   0  0  0  0  0
    3.6642    5.8929   58.1345 N   0  0  0  0  0
    5.8581    3.1576   55.8693 N   0  0  0  0  0
    5.6680    5.2240   56.9860 N   0  0  0  0  0
   -3.0408   14.3858   42.2020 S   0  0  0  0  0
    2.0944    5.5912   58.7996 S   0  0  0  0  0
   -1.5557   14.3107   42.4316 O   0  0  0  0  0
   -3.4562   13.3827   41.1641 O   0  0  0  0  0
   -0.5317   15.6732   37.8341 O   0  0  0  0  0
   -3.0332   19.6833   38.5445 O   0  0  0  0  0
   -7.9929   13.3518   49.0387 O   0  0  0  0  0
  -10.1905   11.9843   50.0155 O   0  0  0  0  0
   -3.9496   10.2050   49.2745 O   0  0  0  0  0
    0.4608    4.0473   53.0618 O   0  0  0  0  0
    2.1777    4.4290   59.7503 O   0  0  0  0  0
    1.6374    6.8070   59.5543 O   0  0  0  0  0
    7.7158    4.6770   55.9059 O   0  0  0  0  0
    4.0614    1.6006   55.7816 O   0  0  0  0  0
   -3.8435    7.0232   52.3016 O   0  0  0  0  0
    2.1639    4.6479   51.0017 O   0  0  0  0  0
  1  2  1  0  0  0
  3  4  1  0  0  0
  3 28  1  0  0  0
  4 71  1  0  0  0
  5  6  1  0  0  0
  6 20  1  0  0  0
  7 55  1  0  0  0
  9 10  1  0  0  0
 11 12  1  0  0  0
 13  8  1  0  0  0
 14 58  1  0  0  0
 15 16  1  0  0  0
 16 68  1  0  0  0
 17 57  1  0  0  0
 17 67  1  0  0  0
 18 67  1  0  0  0
 19 68  1  0  0  0
 20 21  1  0  0  0
 21 70  1  0  0  0
 22 23  1  0  0  0
 23  5  1  0  0  0
 24  2  1  0  0  0
 25 22  1  0  0  0
 25 26  1  0  0  0
 25 27  1  0  0  0
 29 30  1  0  0  0
 31 32  1  0  0  0
 33 34  1  0  0  0
 33 78  1  0  0  0
 34 35  1  0  0  0
 35 49  1  0  0  0
 36 59  1  0  0  0
 38 39  1  0  0  0
 40 41  1  0  0  0
 42 37  1  0  0  0
 43 62  1  0  0  0
 44 45  1  0  0  0
 45 76  1  0  0  0
 46 61  1  0  0  0
 46 75  1  0  0  0
 47 75  1  0  0  0
 48 76  1  0  0  0
 49 31  1  0  0  0
 50 77  1  0  0  0
 50 28  1  0  0  0
 51 32  1  0  0  0
 51 52  1  0  0  0
 51 53  1  0  0  0
 54 29  1  0  0  0
 55  8  1  0  0  0
 56 14  1  0  0  0
 59 37  1  0  0  0
 60 43  1  0  0  0
 63 11  1  0  0  0
 63 56  1  0  0  0
 64 40  1  0  0  0
 64 60  1  0  0  0
  2  3  2  0  0  0
  4  5  2  0  0  0
  6  7  2  0  0  0
  8  9  2  0  0  0
 10 11  2  0  0  0
 12 13  2  0  0  0
 14 15  2  0  0  0
 16 57  2  0  0  0
 17 58  2  0  0  0
 20 69  2  0  0  0
 21 22  2  0  0  0
 23 24  2  0  0  0
 28 29  2  0  0  0
 30 31  2  0  0  0
 32 33  2  0  0  0
 34 72  2  0  0  0
 35 36  2  0  0  0
 37 38  2  0  0  0
 39 40  2  0  0  0
 41 42  2  0  0  0
 43 44  2  0  0  0
 45 61  2  0  0  0
 46 62  2  0  0  0
 49 50  2  0  0  0
 63 65  2  0  0  0
 63 66  2  0  0  0
 64 73  2  0  0  0
 64 74  2  0  0  0
M  END
> <rmsd>
0.809009433

$$$$
MolPort-016-936-535 ChemDiv-V003-3450 MCULE-7647372633 PubChem-46148615 ZINC000103047086


 45 50  0  0  0  0  0  0  0  0999 V2000
   -3.4123   16.1085   45.0730 C   0  0  0  0  0
   -1.6827   14.3450   45.2455 C   0  0  0  0  0
   -0.8379   13.4371   44.5896 C   0  0  0  0  0
   -0.0342   12.4805   42.4520 C   0  0  0  0  0
    0.0102   12.6103   45.3443 C   0  0  0  0  0
    0.0259   12.6789   46.7453 C   0  0  0  0  0
   -0.8218   13.5895   47.3892 C   0  0  0  0  0
   -1.6686   14.4150   46.6475 C   0  0  0  0  0
    0.9211   11.8092   47.5379 C   0  0  0  0  0
    2.5745   10.2177   49.0849 C   0  0  0  0  0
    2.5996   10.0867   47.6931 C   0  0  0  0  0
    1.7688   10.8876   46.9154 C   0  0  0  0  0
    3.4444    9.6201   51.3660 C   0  0  0  0  0
    3.3961    8.2770   52.0864 C   0  0  0  0  0
    4.3536    7.1489   50.0685 C   0  0  0  0  0
    4.3973    8.4873   49.3370 C   0  0  0  0  0
    5.4148    6.7797   52.3198 C   0  0  0  0  0
    5.4587    7.0111   53.7970 C   0  0  0  0  0
    3.3565    6.0269   54.7178 C   0  0  0  0  0
    3.0632    6.2077   56.1683 C   0  0  0  0  0
    3.2113    7.4816   56.7621 C   0  0  0  0  0
    2.9622    7.6632   58.1345 C   0  0  0  0  0
    2.5728    6.5463   58.8696 C   0  0  0  0  0
    1.9282    5.1051   60.5125 C   0  0  0  0  0
    2.4342    5.3211   58.3016 C   0  0  0  0  0
    2.6718    5.1025   56.9472 C   0  0  0  0  0
    5.4871    4.6902   54.7892 C   0  0  0  0  0
    6.9618    4.6506   54.9238 C   0  0  0  0  0
    7.7336    3.5589   54.4626 C   0  0  0  0  0
    9.1212    3.5635   54.6401 C   0  0  0  0  0
    9.7511    4.6355   55.2749 C   0  0  0  0  0
    8.9955    5.7147   55.7338 C   0  0  0  0  0
    7.6102    5.7203   55.5594 C   0  0  0  0  0
   -2.5247   15.1657   44.4870 O   0  0  0  0  0
   -0.8568   13.3726   43.1922 O   0  0  0  0  0
    6.2761    6.0231   51.7957 O   0  0  0  0  0
    2.2752    6.4651   60.2153 O   0  0  0  0  0
    2.0432    4.4103   59.2626 O   0  0  0  0  0
    4.8229    3.6316   54.9595 O   0  0  0  0  0
    0.9323   11.8953   48.8968 N   0  0  0  0  0
    1.7292   11.1277   49.6428 N   0  0  0  0  0
    3.4158    9.4046   49.9195 N   0  0  0  0  0
    4.3953    7.3821   51.5092 N   0  0  0  0  0
    4.7948    5.9205   54.5018 N   0  0  0  0  0
    7.0262    2.1960   53.6057 Cl  0  0  0  0  0
  1 34  1  0  0  0
  2 34  1  0  0  0
  3 35  1  0  0  0
  3  5  1  0  0  0
  4 35  1  0  0  0
  6  7  1  0  0  0
  6  9  1  0  0  0
  8  2  1  0  0  0
 10 11  1  0  0  0
 10 42  1  0  0  0
 12  9  1  0  0  0
 13 42  1  0  0  0
 13 14  1  0  0  0
 14 43  1  0  0  0
 15 43  1  0  0  0
 15 16  1  0  0  0
 16 42  1  0  0  0
 18 17  1  0  0  0
 18 44  1  0  0  0
 19 44  1  0  0  0
 19 20  1  0  0  0
 21 22  1  0  0  0
 23 37  1  0  0  0
 24 37  1  0  0  0
 24 38  1  0  0  0
 25 38  1  0  0  0
 25 23  1  0  0  0
 26 20  1  0  0  0
 27 28  1  0  0  0
 29 45  1  0  0  0
 29 30  1  0  0  0
 31 32  1  0  0  0
 33 28  1  0  0  0
 40 41  1  0  0  0
 43 17  1  0  0  0
 44 27  1  0  0  0
  2  3  2  0  0  0
  5  6  2  0  0  0
  7  8  2  0  0  0
  9 40  2  0  0  0
 10 41  2  0  0  0
 11 12  2  0  0  0
 17 36  2  0  0  0
 20 21  2  0  0  0
 22 23  2  0  0  0
 25 26  2  0  0  0
 27 39  2  0  0  0
 28 29  2  0  0  0
 30 31  2  0  0  0
 32 33  2  0  0  0
M  END
> <rmsd>
0.771838486

$$$$
MolPort-016-936-535 ChemDiv-V003-3450 MCULE-7647372633 PubChem-46148615 ZINC000103047086


 45 50  0  0  0  0  0  0  0  0999 V2000
   -2.1481   14.7133   43.4166 C   0  0  0  0  0
   -0.4572   12.9740   43.9131 C   0  0  0  0  0
    0.4300   12.0022   43.4267 C   0  0  0  0  0
    1.3996   10.8300   41.4731 C   0  0  0  0  0
    1.2037   11.2558   44.3305 C   0  0  0  0  0
    1.1029   11.4676   45.7135 C   0  0  0  0  0
    0.2139   12.4409   46.1875 C   0  0  0  0  0
   -0.5595   13.1874   45.2968 C   0  0  0  0  0
    1.9198   10.6823   46.6632 C   0  0  0  0  0
    3.4218    9.2551   48.4982 C   0  0  0  0  0
    3.5617    8.9821   47.1341 C   0  0  0  0  0
    2.8071    9.7003   46.2115 C   0  0  0  0  0
    4.0919    8.8931   50.8934 C   0  0  0  0  0
    3.9698    7.6311   51.7405 C   0  0  0  0  0
    5.0808    6.3005   49.9360 C   0  0  0  0  0
    5.1993    7.5566   49.0780 C   0  0  0  0  0
    5.9464    6.1623   52.2945 C   0  0  0  0  0
    5.8692    6.5439   53.7388 C   0  0  0  0  0
    3.6874    5.6628   54.5750 C   0  0  0  0  0
    3.2758    5.9919   55.9697 C   0  0  0  0  0
    3.3869    7.3198   56.4407 C   0  0  0  0  0
    3.0259    7.6416   57.7616 C   0  0  0  0  0
    2.5651    6.6066   58.5715 C   0  0  0  0  0
    1.7707    5.3426   60.2928 C   0  0  0  0  0
    2.4618    5.3299   58.1218 C   0  0  0  0  0
    2.8094    4.9731   56.8217 C   0  0  0  0  0
    5.7907    4.3370   54.9615 C   0  0  0  0  0
    7.2486    4.3088   55.2230 C   0  0  0  0  0
    8.0449    3.1744   54.9423 C   0  0  0  0  0
    9.4129    3.1949   55.2344 C   0  0  0  0  0
    9.9985    4.3252   55.8073 C   0  0  0  0  0
    9.2183    5.4471   56.0884 C   0  0  0  0  0
    7.8526    5.4371   55.7984 C   0  0  0  0  0
   -1.2244   13.7140   43.0067 O   0  0  0  0  0
    0.5273   11.7948   42.0465 O   0  0  0  0  0
    6.8407    5.3545   51.9247 O   0  0  0  0  0
    2.1553    6.6644   59.8885 O   0  0  0  0  0
    1.9826    4.5231   59.1344 O   0  0  0  0  0
    5.1038    3.3025   55.1824 O   0  0  0  0  0
    1.8184   10.9074   48.0023 N   0  0  0  0  0
    2.5422   10.2189   48.8872 N   0  0  0  0  0
    4.1820    8.5305   49.4792 N   0  0  0  0  0
    5.0045    6.6801   51.3437 N   0  0  0  0  0
    5.1375    5.5325   54.4929 N   0  0  0  0  0
    7.3975    1.7320   54.1725 Cl  0  0  0  0  0
  1 34  1  0  0  0
  2 34  1  0  0  0
  3 35  1  0  0  0
  3  5  1  0  0  0
  4 35  1  0  0  0
  6  7  1  0  0  0
  6  9  1  0  0  0
  8  2  1  0  0  0
 10 11  1  0  0  0
 10 42  1  0  0  0
 12  9  1  0  0  0
 13 42  1  0  0  0
 13 14  1  0  0  0
 14 43  1  0  0  0
 15 43  1  0  0  0
 15 16  1  0  0  0
 16 42  1  0  0  0
 18 17  1  0  0  0
 18 44  1  0  0  0
 19 44  1  0  0  0
 19 20  1  0  0  0
 21 22  1  0  0  0
 23 37  1  0  0  0
 24 37  1  0  0  0
 24 38  1  0  0  0
 25 38  1  0  0  0
 25 23  1  0  0  0
 26 20  1  0  0  0
 27 28  1  0  0  0
 29 45  1  0  0  0
 29 30  1  0  0  0
 31 32  1  0  0  0
 33 28  1  0  0  0
 40 41  1  0  0  0
 43 17  1  0  0  0
 44 27  1  0  0  0
  2  3  2  0  0  0
  5  6  2  0  0  0
  7  8  2  0  0  0
  9 40  2  0  0  0
 10 41  2  0  0  0
 11 12  2  0  0  0
 17 36  2  0  0  0
 20 21  2  0  0  0
 22 23  2  0  0  0
 25 26  2  0  0  0
 27 39  2  0  0  0
 28 29  2  0  0  0
 30 31  2  0  0  0
 32 33  2  0  0  0
M  END
> <rmsd>
0.579444647

$$$$
MolPort-046-856-907


102108  0  0  0  0  0  0  0  0999 V2000
    9.3305    0.7074   60.8761 C   0  0  0  0  0
    8.7960    1.9216   60.1340 C   0  0  0  0  0
    9.0031    3.1745   60.9672 C   0  0  0  0  0
    7.3378    1.7030   59.7048 C   0  0  0  0  0
    6.0498    2.1823   61.9017 C   0  0  0  0  0
    5.3727    1.5644   63.0895 C   0  0  0  0  0
    3.8630    1.7098   62.9730 C   0  0  0  0  0
    3.3120    0.7424   61.9772 C   0  0  0  0  0
    2.7602    1.2161   60.7792 C   0  0  0  0  0
    2.2557    0.3121   59.8372 C   0  0  0  0  0
    2.2976   -1.0645   60.0899 C   0  0  0  0  0
    2.8440   -1.5373   61.2878 C   0  0  0  0  0
    3.3518   -0.6357   62.2300 C   0  0  0  0  0
    7.1769    2.0750   64.7954 C   0  0  0  0  0
    7.5873    2.8405   66.0131 C   0  0  0  0  0
    8.4997    2.0280   66.9232 C   0  0  0  0  0
    9.9232    2.0756   66.4063 C   0  0  0  0  0
   10.8522    1.3745   67.3746 C   0  0  0  0  0
   12.2615    1.3549   66.8072 C   0  0  0  0  0
   12.4397   -1.0475   66.0595 C   0  0  0  0  0
   12.4081   -2.7433   67.9912 C   0  0  0  0  0
   11.5164   -3.6388   67.3872 C   0  0  0  0  0
   11.1617   -4.8473   68.0061 C   0  0  0  0  0
   10.1921   -5.7182   67.2992 C   0  0  0  0  0
   11.7222   -5.1512   69.2779 C   0  0  0  0  0
   12.6084   -4.2441   69.8755 C   0  0  0  0  0
   12.9449   -3.0500   69.2389 C   0  0  0  0  0
   11.3721   -6.3695   70.0464 C   0  0  0  0  0
   10.4673   -6.2953   71.1146 C   0  0  0  0  0
    9.8434   -5.1049   71.5057 C   0  0  0  0  0
    8.9453   -5.1020   72.5781 C   0  0  0  0  0
    8.6496   -6.2778   73.2745 C   0  0  0  0  0
    9.2485   -7.4914   72.9142 C   0  0  0  0  0
   10.1477   -7.5400   71.8517 C   0  0  0  0  0
   11.5756   -8.7671   70.4901 C   0  0  0  0  0
   12.1336  -10.0091   70.1770 C   0  0  0  0  0
   13.0424  -10.1335   69.1250 C   0  0  0  0  0
   13.4082   -9.0097   68.3819 C   0  0  0  0  0
   12.8623   -7.7600   68.6827 C   0  0  0  0  0
   11.9428   -7.6201   69.7344 C   0  0  0  0  0
    6.8051    2.7899   58.8134 C   0  0  0  0  0
    7.1307    4.1708   56.7047 C   0  0  0  0  0
    8.0989    4.2182   55.5364 C   0  0  0  0  0
    5.7207    4.1093   56.2112 C   0  0  0  0  0
    3.4142    5.1797   56.1657 C   0  0  0  0  0
    2.7021    6.3052   56.8990 C   0  0  0  0  0
    2.3584    5.9427   58.3112 C   0  0  0  0  0
    3.2433    5.3290   54.6894 C   0  0  0  0  0
    2.2622    4.3546   52.5615 C   0  0  0  0  0
    3.4789    3.5812   52.0717 C   0  0  0  0  0
    1.0057    3.6338   52.1399 C   0  0  0  0  0
    0.0146    2.1847   50.3416 C   0  0  0  0  0
    0.2880    2.0327   48.8522 C   0  0  0  0  0
    1.4457    2.9736   48.5400 C   0  0  0  0  0
    1.4585    4.0005   49.6651 C   0  0  0  0  0
    0.7675    5.2729   49.2564 C   0  0  0  0  0
    0.5147    7.7745   49.4968 C   0  0  0  0  0
    0.7331    8.8355   50.5753 C   0  0  0  0  0
    2.2017    9.2005   50.7785 C   0  0  0  0  0
    2.6294   10.3675   49.8973 C   0  0  0  0  0
    1.9679   11.6660   50.3355 C   0  0  0  0  0
    0.4905   12.2005   48.3283 C   0  0  0  0  0
    1.5835   12.6970   47.6022 C   0  0  0  0  0
    1.4317   13.1225   46.2819 C   0  0  0  0  0
    0.1809   13.0548   45.6588 C   0  0  0  0  0
   -0.9099   12.5506   46.3756 C   0  0  0  0  0
   -0.7792   12.1226   47.7064 C   0  0  0  0  0
    0.9179    8.2397   48.1300 C   0  0  0  0  0
    6.4444    1.3422   60.8099 N   0  0  0  0  0
    5.8313    2.1854   64.3274 N   0  0  0  0  0
   12.3692    0.3470   65.7636 N   0  0  0  0  0
   12.7055   -1.4689   67.4074 N   0  0  0  0  0
    7.4386    3.0266   57.5533 N   0  0  0  0  0
    4.8265    5.1768   56.5308 N   0  0  0  0  0
    2.3248    4.4674   54.0124 N   0  0  0  0  0
    0.7354    3.3719   50.7547 N   0  0  0  0  0
    1.1542    6.5112   49.8585 N   0  0  0  0  0
    0.6651   11.8082   49.6962 N   0  0  0  0  0
   -1.9322   11.5864   48.3792 N   0  0  0  0  0
    0.0270   13.4886   44.2990 N   0  0  0  0  0
    6.2373    3.4272   61.8608 O   0  0  0  0  0
    1.7966   -1.9611   59.1542 O   0  0  0  0  0
    8.0246    1.3980   64.1486 O   0  0  0  0  0
    9.7752   -5.3867   66.0135 O   0  0  0  0  0
    9.7183   -6.7507   67.8414 O   0  0  0  0  0
    7.8393   -6.2458   74.2354 O   0  0  0  0  0
   10.7153   -8.6820   71.4986 O   0  0  0  0  0
   13.5827  -11.3744   68.8223 O   0  0  0  0  0
    5.8155    3.4898   59.1646 O   0  0  0  0  0
    5.3224    3.1157   55.5430 O   0  0  0  0  0
    1.7503    6.8926   59.1226 O   0  0  0  0  0
    2.5810    4.7874   58.7637 O   0  0  0  0  0
    3.9005    6.1989   54.0520 O   0  0  0  0  0
    0.1810    3.2413   53.0136 O   0  0  0  0  0
   -0.1704    5.2486   48.4065 O   0  0  0  0  0
   -1.8233   10.9322   49.5858 O   0  0  0  0  0
   -3.0522   11.6385   47.8304 O   0  0  0  0  0
    1.1082   13.9652   43.5950 O   0  0  0  0  0
   -1.1032   13.5019   43.7639 O   0  0  0  0  0
    0.0294    8.9855   47.3687 O   0  0  0  0  0
    2.0592    7.9749   47.6703 O   0  0  0  0  0
   12.4670   -2.1087   64.8111 S   0  0  0  0  0
  1  2  1  0  0  0
  2  3  1  0  0  0
  2  4  1  0  0  0
  4 69  1  0  0  0
  4 41  1  0  0  0
  6  5  1  0  0  0
  6  7  1  0  0  0
  6 70  1  0  0  0
  7  8  1  0  0  0
  9 10  1  0  0  0
 11 82  1  0  0  0
 11 12  1  0  0  0
 13  8  1  0  0  0
 15 14  1  0  0  0
 15 16  1  0  0  0
 16 17  1  0  0  0
 17 18  1  0  0  0
 18 19  1  0  0  0
 19 71  1  0  0  0
 20 72  1  0  0  0
 22 23  1  0  0  0
 23 24  1  0  0  0
 24 84  1  0  0  0
 25 26  1  0  0  0
 25 28  1  0  0  0
 27 21  1  0  0  0
 29 30  1  0  0  0
 31 32  1  0  0  0
 32 33  1  0  0  0
 34 87  1  0  0  0
 34 29  1  0  0  0
 35 87  1  0  0  0
 36 37  1  0  0  0
 37 88  1  0  0  0
 38 39  1  0  0  0
 40 28  1  0  0  0
 40 35  1  0  0  0
 41 73  1  0  0  0
 42 73  1  0  0  0
 42 43  1  0  0  0
 42 44  1  0  0  0
 44 74  1  0  0  0
 45 74  1  0  0  0
 45 46  1  0  0  0
 45 48  1  0  0  0
 46 47  1  0  0  0
 47 91  1  0  0  0
 48 75  1  0  0  0
 49 75  1  0  0  0
 49 50  1  0  0  0
 49 51  1  0  0  0
 51 76  1  0  0  0
 52 76  1  0  0  0
 52 53  1  0  0  0
 53 54  1  0  0  0
 54 55  1  0  0  0
 55 56  1  0  0  0
 55 76  1  0  0  0
 56 77  1  0  0  0
 57 77  1  0  0  0
 57 58  1  0  0  0
 57 68  1  0  0  0
 58 59  1  0  0  0
 59 60  1  0  0  0
 60 61  1  0  0  0
 61 78  1  0  0  0
 63 64  1  0  0  0
 65 66  1  0  0  0
 65 80  1  0  0  0
 67 79  1  0  0  0
 67 62  1  0  0  0
 68100  1  0  0  0
 69  5  1  0  0  0
 70 14  1  0  0  0
 71 20  1  0  0  0
 72 21  1  0  0  0
 78 62  1  0  0  0
 79 96  1  0  0  0
 80 98  1  0  0  0
  5 81  2  0  0  0
  8  9  2  0  0  0
 10 11  2  0  0  0
 12 13  2  0  0  0
 14 83  2  0  0  0
 20102  2  0  0  0
 21 22  2  0  0  0
 23 25  2  0  0  0
 24 85  2  0  0  0
 26 27  2  0  0  0
 28 29  2  0  0  0
 30 31  2  0  0  0
 32 86  2  0  0  0
 33 34  2  0  0  0
 35 36  2  0  0  0
 37 38  2  0  0  0
 39 40  2  0  0  0
 41 89  2  0  0  0
 44 90  2  0  0  0
 47 92  2  0  0  0
 48 93  2  0  0  0
 51 94  2  0  0  0
 56 95  2  0  0  0
 62 63  2  0  0  0
 64 65  2  0  0  0
 66 67  2  0  0  0
 68101  2  0  0  0
 79 97  2  0  0  0
 80 99  2  0  0  0
M  CHG  4  79   1  96  -1  80   1  98  -1
M  END
> <rmsd>
0.765419066

$$$$
MolPort-000-747-185 LN01781866 PubChem-44660465


 74 80  0  0  0  0  0  0  0  0999 V2000
    5.1005   11.7605   44.4908 C   0  0  0  0  0
    4.1367   11.7803   45.6703 C   0  0  0  0  0
    3.3281   10.4808   45.8379 C   0  0  0  0  0
    2.6040   10.6129   47.1675 C   0  0  0  0  0
    2.2288   10.3338   44.7381 C   0  0  0  0  0
    2.0103    8.8881   44.2696 C   0  0  0  0  0
    2.0999    7.9254   45.4435 C   0  0  0  0  0
    3.5137    7.8689   46.0436 C   0  0  0  0  0
    4.2871    6.8044   45.2762 C   0  0  0  0  0
    4.2468    9.2236   45.8641 C   0  0  0  0  0
    5.5234    9.3472   46.7039 C   0  0  0  0  0
    5.2568    9.0773   48.1757 C   0  0  0  0  0
    4.6628    7.6770   48.4161 C   0  0  0  0  0
    5.7148    6.6265   48.0291 C   0  0  0  0  0
    3.3877    7.4957   47.5493 C   0  0  0  0  0
    2.7217    6.1216   47.7608 C   0  0  0  0  0
    2.7698    5.6424   49.1842 C   0  0  0  0  0
    3.4915    6.2277   50.1552 C   0  0  0  0  0
    3.3771    5.6489   51.5408 C   0  0  0  0  0
    2.2753    6.3834   52.3140 C   0  0  0  0  0
    2.0752    5.8104   53.7114 C   0  0  0  0  0
    1.5248    4.3939   53.6097 C   0  0  0  0  0
    1.0431    6.6674   54.4266 C   0  0  0  0  0
    3.3970    5.8507   54.4970 C   0  0  0  0  0
    3.7140    6.1620   56.6824 C   0  0  0  0  0
    3.0977    7.7013   58.2573 C   0  0  0  0  0
    2.2123    8.9196   58.4826 C   0  0  0  0  0
    3.2202    6.8120   59.5020 C   0  0  0  0  0
    3.6534    5.3767   59.1135 C   0  0  0  0  0
    4.4442    5.3664   57.7923 C   0  0  0  0  0
    4.5380    5.1447   53.7394 C   0  0  0  0  0
    6.3300    4.1221   55.0844 C   0  0  0  0  0
    7.6064    4.2718   55.8234 C   0  0  0  0  0
    4.7369    5.6421   52.2804 C   0  0  0  0  0
    5.6333    4.6199   51.5537 C   0  0  0  0  0
    5.3918    7.0499   52.2237 C   0  0  0  0  0
    5.5564    7.5531   50.7836 C   0  0  0  0  0
    4.2711    7.5245   49.9236 C   0  0  0  0  0
    3.3765    8.6924   50.3580 C   0  0  0  0  0
    1.2183   11.4702   43.0612 C   0  0  0  0  0
    0.8017   13.7261   43.7467 C   0  0  0  0  0
    2.0974   14.0158   42.9571 C   0  0  0  0  0
    3.4174   16.0131   43.5352 C   0  0  0  0  0
    3.6270   17.4645   43.4229 C   0  0  0  0  0
    4.6488   18.1258   44.2808 C   0  0  0  0  0
    2.8524   18.1817   42.6026 C   0  0  0  0  0
    2.9578   19.6628   42.4559 C   0  0  0  0  0
    2.0456   13.3738   41.5735 C   0  0  0  0  0
    1.4129   11.9772   41.6247 C   0  0  0  0  0
    0.0859   12.0878   39.5343 C   0  0  0  0  0
   -1.2272   12.0067   38.8741 C   0  0  0  0  0
   -1.2945   11.9313   37.3888 C   0  0  0  0  0
   -2.3370   11.9615   39.6196 C   0  0  0  0  0
   -3.7014   11.8144   39.0390 C   0  0  0  0  0
   -0.3768   14.5133   43.2522 C   0  0  0  0  0
    3.2240    5.2497   55.7523 O   0  0  0  0  0
    2.6392    6.9492   57.1637 O   0  0  0  0  0
    2.3847    9.8293   57.4335 O   0  0  0  0  0
    2.0387    6.7872   60.2495 O   0  0  0  0  0
    2.5445    4.5313   58.9986 O   0  0  0  0  0
    5.7161    5.9056   57.9942 O   0  0  0  0  0
    5.7490    5.2388   54.4836 O   0  0  0  0  0
    5.7843    2.9849   55.0058 O   0  0  0  0  0
    6.9520    4.6307   52.0335 O   0  0  0  0  0
    4.6997    7.9955   52.9879 O   0  0  0  0  0
    2.4661   11.1625   43.6342 O   0  0  0  0  0
    0.4648   12.3485   43.8910 O   0  0  0  0  0
    2.3517   15.4091   42.8560 O   0  0  0  0  0
    4.1868   15.3201   44.2577 O   0  0  0  0  0
    3.3382   13.2735   41.0515 O   0  0  0  0  0
    0.1710   11.9589   40.9295 O   0  0  0  0  0
    1.1337   12.2386   38.8422 O   0  0  0  0  0
   -0.4325   15.8882   43.4896 O   0  0  0  0  0
   -1.3256   13.9407   42.6529 O   0  0  0  0  0
  1  2  1  0  0  0
  3  2  1  0  0  0
  3  4  1  0  0  0
  3  5  1  0  0  0
  5  6  1  0  0  0
  5 66  1  0  0  0
  6  7  1  0  0  0
  7  8  1  0  0  0
  8  9  1  0  0  0
  8 10  1  0  0  0
 10 11  1  0  0  0
 10  3  1  0  0  0
 11 12  1  0  0  0
 12 13  1  0  0  0
 13 14  1  0  0  0
 13 15  1  0  0  0
 15 16  1  0  0  0
 15  8  1  0  0  0
 16 17  1  0  0  0
 19 18  1  0  0  0
 19 20  1  0  0  0
 20 21  1  0  0  0
 21 22  1  0  0  0
 21 23  1  0  0  0
 21 24  1  0  0  0
 24 56  1  0  0  0
 24 31  1  0  0  0
 25 56  1  0  0  0
 25 57  1  0  0  0
 26 57  1  0  0  0
 26 27  1  0  0  0
 26 28  1  0  0  0
 27 58  1  0  0  0
 28 59  1  0  0  0
 28 29  1  0  0  0
 29 60  1  0  0  0
 29 30  1  0  0  0
 30 61  1  0  0  0
 30 25  1  0  0  0
 31 62  1  0  0  0
 31 34  1  0  0  0
 32 62  1  0  0  0
 33 32  1  0  0  0
 34 35  1  0  0  0
 34 36  1  0  0  0
 34 19  1  0  0  0
 35 64  1  0  0  0
 36 65  1  0  0  0
 36 37  1  0  0  0
 37 38  1  0  0  0
 38 39  1  0  0  0
 38 13  1  0  0  0
 38 18  1  0  0  0
 40 66  1  0  0  0
 40 67  1  0  0  0
 41 67  1  0  0  0
 41 42  1  0  0  0
 41 55  1  0  0  0
 42 68  1  0  0  0
 42 48  1  0  0  0
 43 68  1  0  0  0
 43 44  1  0  0  0
 45 44  1  0  0  0
 47 46  1  0  0  0
 48 70  1  0  0  0
 48 49  1  0  0  0
 49 71  1  0  0  0
 49 40  1  0  0  0
 50 71  1  0  0  0
 50 51  1  0  0  0
 52 51  1  0  0  0
 54 53  1  0  0  0
 55 73  1  0  0  0
 17 18  2  0  0  0
 32 63  2  0  0  0
 43 69  2  0  0  0
 44 46  2  0  0  0
 50 72  2  0  0  0
 51 53  2  0  0  0
 55 74  2  0  0  0
M  END
> <rmsd>
0.478225648

$$$$
MolPort-000-747-185 LN01781866 PubChem-44660465


 74 80  0  0  0  0  0  0  0  0999 V2000
    4.4194   10.4276   43.8621 C   0  0  0  0  0
    3.4763   10.5009   45.0561 C   0  0  0  0  0
    2.7601    9.1743   45.3687 C   0  0  0  0  0
    2.0510    9.3898   46.6955 C   0  0  0  0  0
    1.6551    8.8473   44.3144 C   0  0  0  0  0
    1.5269    7.3511   43.9947 C   0  0  0  0  0
    1.7009    6.5174   45.2549 C   0  0  0  0  0
    3.1250    6.6134   45.8245 C   0  0  0  0  0
    3.9556    5.5312   45.1472 C   0  0  0  0  0
    3.7619    7.9888   45.4965 C   0  0  0  0  0
    5.0411    8.2784   46.2903 C   0  0  0  0  0
    4.8178    8.1389   47.7872 C   0  0  0  0  0
    4.3238    6.7334   48.1771 C   0  0  0  0  0
    5.4377    5.7210   47.8704 C   0  0  0  0  0
    3.0495    6.3840   47.3620 C   0  0  0  0  0
    2.4814    4.9969   47.7223 C   0  0  0  0  0
    2.5855    4.6654   49.1844 C   0  0  0  0  0
    3.2820    5.3901   50.0764 C   0  0  0  0  0
    3.2301    4.9452   51.5143 C   0  0  0  0  0
    2.0943    5.6790   52.2372 C   0  0  0  0  0
    1.9566    5.2356   53.6883 C   0  0  0  0  0
    1.5014    3.7829   53.7385 C   0  0  0  0  0
    0.8810    6.0897   54.3400 C   0  0  0  0  0
    3.2855    5.4401   54.4353 C   0  0  0  0  0
    3.6172    5.9866   56.5717 C   0  0  0  0  0
    2.9246    7.6307   58.0024 C   0  0  0  0  0
    1.9629    8.8047   58.1280 C   0  0  0  0  0
    3.1276    6.8792   59.3250 C   0  0  0  0  0
    3.6501    5.4439   59.0688 C   0  0  0  0  0
    4.4178    5.3545   57.7369 C   0  0  0  0  0
    4.4588    4.7387   53.7241 C   0  0  0  0  0
    6.3379    3.9741   55.1206 C   0  0  0  0  0
    7.6134    4.2797   55.8116 C   0  0  0  0  0
    4.5994    5.1009   52.2192 C   0  0  0  0  0
    5.5505    4.0727   51.5753 C   0  0  0  0  0
    5.1568    6.5361   52.0098 C   0  0  0  0  0
    5.2630    6.9037   50.5240 C   0  0  0  0  0
    3.9684    6.7058   49.7010 C   0  0  0  0  0
    3.0044    7.8499   50.0398 C   0  0  0  0  0
    0.5425    9.7432   42.5583 C   0  0  0  0  0
   -0.0140   12.0238   43.0293 C   0  0  0  0  0
    1.2458   12.3180   42.1853 C   0  0  0  0  0
    2.4374   14.4449   42.5345 C   0  0  0  0  0
    2.5468   15.8887   42.2760 C   0  0  0  0  0
    3.5357   16.6973   43.0411 C   0  0  0  0  0
    1.7119   16.4687   41.4076 C   0  0  0  0  0
    1.7147   17.9316   41.1143 C   0  0  0  0  0
    1.2145   11.5400   40.8728 C   0  0  0  0  0
    0.6784   10.1169   41.0750 C   0  0  0  0  0
   -0.6876    9.9325   39.0152 C   0  0  0  0  0
   -2.0030    9.7005   38.3967 C   0  0  0  0  0
   -2.0898    9.4739   36.9279 C   0  0  0  0  0
   -3.0947    9.6567   39.1686 C   0  0  0  0  0
   -4.4555    9.3638   38.6371 C   0  0  0  0  0
   -1.2510   12.6791   42.4877 C   0  0  0  0  0
    3.1744    4.9564   55.7471 O   0  0  0  0  0
    2.4998    6.7455   56.9985 O   0  0  0  0  0
    2.0560    9.6153   56.9912 O   0  0  0  0  0
    1.9631    6.8513   60.0986 O   0  0  0  0  0
    2.5991    4.5205   59.0629 O   0  0  0  0  0
    5.6536    5.9932   57.8555 O   0  0  0  0  0
    5.6730    4.9853   54.4272 O   0  0  0  0  0
    5.8690    2.8014   55.1664 O   0  0  0  0  0
    6.8733    4.2174   52.0210 O   0  0  0  0  0
    4.4152    7.5054   52.6938 O   0  0  0  0  0
    1.8175    9.5762   43.1295 O   0  0  0  0  0
   -0.2547   10.6481   43.3155 O   0  0  0  0  0
    1.4038   13.7080   41.9426 O   0  0  0  0  0
    3.2638   13.8789   43.3033 O   0  0  0  0  0
    2.5020   11.4734   40.3332 O   0  0  0  0  0
   -0.5708    9.9485   40.4139 O   0  0  0  0  0
    0.3360   10.0823   38.2875 O   0  0  0  0  0
   -1.3954   14.0642   42.5908 O   0  0  0  0  0
   -2.1689   11.9890   41.9695 O   0  0  0  0  0
  1  2  1  0  0  0
  3  2  1  0  0  0
  3  4  1  0  0  0
  3  5  1  0  0  0
  5  6  1  0  0  0
  5 66  1  0  0  0
  6  7  1  0  0  0
  7  8  1  0  0  0
  8  9  1  0  0  0
  8 10  1  0  0  0
 10 11  1  0  0  0
 10  3  1  0  0  0
 11 12  1  0  0  0
 12 13  1  0  0  0
 13 14  1  0  0  0
 13 15  1  0  0  0
 15 16  1  0  0  0
 15  8  1  0  0  0
 16 17  1  0  0  0
 19 18  1  0  0  0
 19 20  1  0  0  0
 20 21  1  0  0  0
 21 22  1  0  0  0
 21 23  1  0  0  0
 21 24  1  0  0  0
 24 56  1  0  0  0
 24 31  1  0  0  0
 25 56  1  0  0  0
 25 57  1  0  0  0
 26 57  1  0  0  0
 26 27  1  0  0  0
 26 28  1  0  0  0
 27 58  1  0  0  0
 28 59  1  0  0  0
 28 29  1  0  0  0
 29 60  1  0  0  0
 29 30  1  0  0  0
 30 61  1  0  0  0
 30 25  1  0  0  0
 31 62  1  0  0  0
 31 34  1  0  0  0
 32 62  1  0  0  0
 33 32  1  0  0  0
 34 35  1  0  0  0
 34 36  1  0  0  0
 34 19  1  0  0  0
 35 64  1  0  0  0
 36 65  1  0  0  0
 36 37  1  0  0  0
 37 38  1  0  0  0
 38 39  1  0  0  0
 38 13  1  0  0  0
 38 18  1  0  0  0
 40 66  1  0  0  0
 40 67  1  0  0  0
 41 67  1  0  0  0
 41 42  1  0  0  0
 41 55  1  0  0  0
 42 68  1  0  0  0
 42 48  1  0  0  0
 43 68  1  0  0  0
 43 44  1  0  0  0
 45 44  1  0  0  0
 47 46  1  0  0  0
 48 70  1  0  0  0
 48 49  1  0  0  0
 49 71  1  0  0  0
 49 40  1  0  0  0
 50 71  1  0  0  0
 50 51  1  0  0  0
 52 51  1  0  0  0
 54 53  1  0  0  0
 55 73  1  0  0  0
 17 18  2  0  0  0
 32 63  2  0  0  0
 43 69  2  0  0  0
 44 46  2  0  0  0
 50 72  2  0  0  0
 51 53  2  0  0  0
 55 74  2  0  0  0
M  END
> <rmsd>
0.504316688

$$$$
MolPort-047-916-125 PubChem-14445202


 95105  0  0  0  0  0  0  0  0999 V2000
   -4.6492   13.2580   32.3384 C   0  0  0  0  0
   -4.3016   14.6519   32.8440 C   0  0  0  0  0
   -5.5250   15.4570   33.3622 C   0  0  0  0  0
   -5.0940   16.4699   34.4255 C   0  0  0  0  0
   -4.2160   15.8270   35.5112 C   0  0  0  0  0
   -3.6075   14.5048   35.0353 C   0  0  0  0  0
   -2.4847   12.7365   35.8262 C   0  0  0  0  0
   -2.9711   12.1365   37.1565 C   0  0  0  0  0
   -0.9133   11.8860   38.0567 C   0  0  0  0  0
   -0.1613   12.4474   36.8423 C   0  0  0  0  0
   -1.0417   12.2651   35.5924 C   0  0  0  0  0
   -0.5521   10.9681   40.0346 C   0  0  0  0  0
   -0.8330   11.4160   41.4664 C   0  0  0  0  0
   -1.9300   12.5067   41.5127 C   0  0  0  0  0
   -2.2773   12.8543   42.9588 C   0  0  0  0  0
   -2.5773   11.5718   43.7300 C   0  0  0  0  0
   -1.4495   10.5510   43.5393 C   0  0  0  0  0
    0.3577   10.1754   45.1622 C   0  0  0  0  0
    1.3642   10.7662   46.1224 C   0  0  0  0  0
    1.5551   12.2682   45.8679 C   0  0  0  0  0
    2.3892   12.5633   44.6251 C   0  0  0  0  0
    3.7931   11.9768   44.7484 C   0  0  0  0  0
    3.7264   10.4584   44.9352 C   0  0  0  0  0
    2.7103   10.0014   45.9948 C   0  0  0  0  0
    3.2424    9.4726   47.2955 C   0  0  0  0  0
    4.2145   10.1403   47.9297 C   0  0  0  0  0
    4.6504    9.8058   49.3194 C   0  0  0  0  0
    3.5212    9.2122   50.1908 C   0  0  0  0  0
    4.1107    8.7975   51.5807 C   0  0  0  0  0
    2.9763    8.4769   52.5714 C   0  0  0  0  0
    3.4916    7.9397   53.9071 C   0  0  0  0  0
    4.3381    6.6876   53.6794 C   0  0  0  0  0
    5.5613    6.9887   52.7889 C   0  0  0  0  0
    5.0764    7.5722   51.4279 C   0  0  0  0  0
    4.4440    6.4514   50.5763 C   0  0  0  0  0
    3.9177    6.9468   49.2332 C   0  0  0  0  0
    2.8482    8.0397   49.4182 C   0  0  0  0  0
    2.2924    8.5404   48.0311 C   0  0  0  0  0
    0.9236    9.2665   48.2002 C   0  0  0  0  0
    0.8013   10.6646   47.5577 C   0  0  0  0  0
    2.0139    7.3333   47.1315 C   0  0  0  0  0
    1.6874    7.4312   50.2181 C   0  0  0  0  0
    6.3537    5.7053   52.5619 C   0  0  0  0  0
    6.5165    7.9519   53.4851 C   0  0  0  0  0
    4.1127    4.8583   54.9081 C   0  0  0  0  0
    2.8491    4.8316   55.7873 C   0  0  0  0  0
    2.2365    3.4199   55.9212 C   0  0  0  0  0
    3.2915    2.3007   55.8904 C   0  0  0  0  0
    4.4672    2.6481   54.9681 C   0  0  0  0  0
    3.6806    4.8834   57.9464 C   0  0  0  0  0
    4.7166    5.7811   58.6282 C   0  0  0  0  0
    4.0412    6.9470   59.3368 C   0  0  0  0  0
    2.6399    6.5964   59.8416 C   0  0  0  0  0
    2.3798    5.0789   59.9477 C   0  0  0  0  0
    2.8134    4.5129   61.2953 C   0  0  0  0  0
    6.8722    5.5425   57.9002 C   0  0  0  0  0
    7.5205    5.8046   59.2740 C   0  0  0  0  0
    8.5126    4.6960   59.6525 C   0  0  0  0  0
    9.0921    4.0038   58.4117 C   0  0  0  0  0
    7.9721    3.5800   57.4254 C   0  0  0  0  0
    8.3456    3.6487   55.9534 C   0  0  0  0  0
    4.8659   10.0022   52.1507 C   0  0  0  0  0
    4.5469   12.2665   43.4667 C   0  0  0  0  0
    4.5538   12.6307   45.8938 C   0  0  0  0  0
   -4.4191   12.4982   37.4404 C   0  0  0  0  0
   -3.1722   14.6300   33.7036 O   0  0  0  0  0
   -2.5388   14.1415   35.8610 O   0  0  0  0  0
   -2.1435   12.5562   38.2145 O   0  0  0  0  0
   -0.4788   12.8997   34.4788 O   0  0  0  0  0
    0.1340   13.7954   37.0446 O   0  0  0  0  0
   -0.1425   12.0252   39.2182 O   0  0  0  0  0
   -1.2447   10.2606   42.1722 O   0  0  0  0  0
   -0.2455   10.9662   44.1799 O   0  0  0  0  0
    0.0534    8.9546   45.2557 O   0  0  0  0  0
    4.7069    6.1273   54.9071 O   0  0  0  0  0
    5.0301    3.8850   55.3291 O   0  0  0  0  0
    3.7572    2.0257   57.1759 O   0  0  0  0  0
    1.3320    3.2155   54.8797 O   0  0  0  0  0
    2.9311    5.5849   56.9836 O   0  0  0  0  0
    2.8190    4.2462   58.8760 O   0  0  0  0  0
    4.2019    4.4448   61.3790 O   0  0  0  0  0
    1.6839    7.1793   59.0090 O   0  0  0  0  0
    4.8310    7.3753   60.4006 O   0  0  0  0  0
    5.6659    6.2544   57.7052 O   0  0  0  0  0
    6.7050    4.1618   57.6635 O   0  0  0  0  0
   10.0127    4.8550   57.7943 O   0  0  0  0  0
    7.8716    3.7560   60.4593 O   0  0  0  0  0
    8.1893    7.0293   59.2340 O   0  0  0  0  0
   -2.7833   11.8383   45.0871 O   0  0  0  0  0
   -1.2316   13.5612   43.5619 O   0  0  0  0  0
   -1.5144   13.6642   40.8522 O   0  0  0  0  0
   -4.8696   11.7791   38.5431 O   0  0  0  0  0
   -4.9725   15.6076   36.6592 O   0  0  0  0  0
   -4.3936   17.5135   33.8212 O   0  0  0  0  0
   -6.4962   14.6098   33.9050 O   0  0  0  0  0
  1  2  1  0  0  0
  2  3  1  0  0  0
  2 66  1  0  0  0
  3  4  1  0  0  0
  3 95  1  0  0  0
  4  5  1  0  0  0
  4 94  1  0  0  0
  5  6  1  0  0  0
  5 93  1  0  0  0
  6 66  1  0  0  0
  6 67  1  0  0  0
  7 67  1  0  0  0
  7  8  1  0  0  0
  8 68  1  0  0  0
  8 65  1  0  0  0
  9 68  1  0  0  0
  9 10  1  0  0  0
  9 71  1  0  0  0
 10 11  1  0  0  0
 10 70  1  0  0  0
 11 69  1  0  0  0
 11  7  1  0  0  0
 12 71  1  0  0  0
 12 13  1  0  0  0
 13 14  1  0  0  0
 13 72  1  0  0  0
 14 15  1  0  0  0
 14 91  1  0  0  0
 15 16  1  0  0  0
 15 90  1  0  0  0
 16 17  1  0  0  0
 16 89  1  0  0  0
 17 72  1  0  0  0
 17 73  1  0  0  0
 18 73  1  0  0  0
 19 18  1  0  0  0
 19 20  1  0  0  0
 20 21  1  0  0  0
 21 22  1  0  0  0
 22 23  1  0  0  0
 22 63  1  0  0  0
 22 64  1  0  0  0
 23 24  1  0  0  0
 24 25  1  0  0  0
 24 19  1  0  0  0
 27 26  1  0  0  0
 27 28  1  0  0  0
 28 29  1  0  0  0
 29 30  1  0  0  0
 29 62  1  0  0  0
 30 31  1  0  0  0
 31 32  1  0  0  0
 32 33  1  0  0  0
 32 75  1  0  0  0
 33 34  1  0  0  0
 33 43  1  0  0  0
 33 44  1  0  0  0
 34 35  1  0  0  0
 34 29  1  0  0  0
 35 36  1  0  0  0
 36 37  1  0  0  0
 37 38  1  0  0  0
 37 42  1  0  0  0
 37 28  1  0  0  0
 38 39  1  0  0  0
 38 41  1  0  0  0
 38 25  1  0  0  0
 39 40  1  0  0  0
 40 19  1  0  0  0
 45 75  1  0  0  0
 45 46  1  0  0  0
 45 76  1  0  0  0
 46 47  1  0  0  0
 46 79  1  0  0  0
 47 48  1  0  0  0
 47 78  1  0  0  0
 48 49  1  0  0  0
 48 77  1  0  0  0
 49 76  1  0  0  0
 50 79  1  0  0  0
 50 51  1  0  0  0
 50 80  1  0  0  0
 51 52  1  0  0  0
 51 84  1  0  0  0
 52 53  1  0  0  0
 52 83  1  0  0  0
 53 54  1  0  0  0
 53 82  1  0  0  0
 54 80  1  0  0  0
 54 55  1  0  0  0
 55 81  1  0  0  0
 56 84  1  0  0  0
 56 57  1  0  0  0
 56 85  1  0  0  0
 57 58  1  0  0  0
 57 88  1  0  0  0
 58 59  1  0  0  0
 58 87  1  0  0  0
 59 60  1  0  0  0
 59 86  1  0  0  0
 60 85  1  0  0  0
 60 61  1  0  0  0
 65 92  1  0  0  0
 18 74  2  0  0  0
 25 26  2  0  0  0
M  END
> <rmsd>
0.748993993

$$$$
MolPort-006-536-876 ChemDiv-V007-4646 MCULE-4616497458 PubChem-46002671 ZINC000103094903


 45 50  0  0  0  0  0  0  0  0999 V2000
   -0.9839   13.5381   41.4253 C   0  0  0  0  0
   -0.5217   13.0951   43.8148 C   0  0  0  0  0
    0.4936   12.1784   43.5196 C   0  0  0  0  0
    1.1857   11.5426   44.5498 C   0  0  0  0  0
    0.8865   11.8028   45.8972 C   0  0  0  0  0
   -0.1464   12.7285   46.1982 C   0  0  0  0  0
   -1.5131   13.9270   47.8866 C   0  0  0  0  0
   -0.8336   13.3617   45.1480 C   0  0  0  0  0
    1.6756   11.0837   46.9362 C   0  0  0  0  0
    1.5611   11.3828   48.2975 C   0  0  0  0  0
    2.3266   10.6850   49.2262 C   0  0  0  0  0
    3.2057    9.6934   48.7839 C   0  0  0  0  0
    4.9675    7.9553   49.2309 C   0  0  0  0  0
    4.8425    6.6754   50.0515 C   0  0  0  0  0
    3.8867    7.9842   51.9592 C   0  0  0  0  0
    4.0044    9.2673   51.1423 C   0  0  0  0  0
    5.8287    6.4204   52.3522 C   0  0  0  0  0
    5.8330    6.7381   53.8140 C   0  0  0  0  0
    3.6599    5.8717   54.6802 C   0  0  0  0  0
    3.2838    6.1186   56.1014 C   0  0  0  0  0
    3.4122    7.4155   56.6478 C   0  0  0  0  0
    3.0815    7.6592   57.9931 C   0  0  0  0  0
    2.6335    6.5797   58.7501 C   0  0  0  0  0
    1.8714    5.2184   60.4107 C   0  0  0  0  0
    2.5148    5.3323   58.2282 C   0  0  0  0  0
    2.8316    5.0524   56.9016 C   0  0  0  0  0
    5.7335    4.4788   54.9431 C   0  0  0  0  0
    7.1713    4.4028   55.2893 C   0  0  0  0  0
    7.9063    5.5575   55.5981 C   0  0  0  0  0
    9.2573    5.4683   55.9452 C   0  0  0  0  0
    9.8849    4.2212   55.9929 C   0  0  0  0  0
   11.3203    4.1257   56.3640 C   0  0  0  0  0
    9.1607    3.0636   55.6977 C   0  0  0  0  0
    7.8093    3.1543   55.3511 C   0  0  0  0  0
   -1.2338   13.7520   42.8078 O   0  0  0  0  0
   -0.4889   13.0091   47.5268 O   0  0  0  0  0
    6.6772    5.6034   51.9040 O   0  0  0  0  0
    2.2526    6.5607   60.0770 O   0  0  0  0  0
    2.0548    4.4684   59.2017 O   0  0  0  0  0
    5.0378    3.4272   54.9977 O   0  0  0  0  0
    3.2858    9.4374   47.4498 N   0  0  0  0  0
    2.5504   10.1082   46.5611 N   0  0  0  0  0
    4.0057    8.9455   49.7143 N   0  0  0  0  0
    4.8592    7.0087   51.4729 N   0  0  0  0  0
    5.1049    5.7172   54.5584 N   0  0  0  0  0
  1 35  1  0  0  0
  2 35  1  0  0  0
  3  4  1  0  0  0
  5  6  1  0  0  0
  5  9  1  0  0  0
  6 36  1  0  0  0
  7 36  1  0  0  0
  8  2  1  0  0  0
  9 42  1  0  0  0
 10 11  1  0  0  0
 12 41  1  0  0  0
 12 43  1  0  0  0
 13 43  1  0  0  0
 13 14  1  0  0  0
 14 44  1  0  0  0
 15 44  1  0  0  0
 15 16  1  0  0  0
 16 43  1  0  0  0
 18 17  1  0  0  0
 18 45  1  0  0  0
 19 45  1  0  0  0
 19 20  1  0  0  0
 21 22  1  0  0  0
 23 38  1  0  0  0
 24 38  1  0  0  0
 24 39  1  0  0  0
 25 39  1  0  0  0
 25 23  1  0  0  0
 26 20  1  0  0  0
 27 28  1  0  0  0
 29 30  1  0  0  0
 31 33  1  0  0  0
 32 31  1  0  0  0
 34 28  1  0  0  0
 44 17  1  0  0  0
 45 27  1  0  0  0
  2  3  2  0  0  0
  4  5  2  0  0  0
  6  8  2  0  0  0
  9 10  2  0  0  0
 11 12  2  0  0  0
 17 37  2  0  0  0
 20 21  2  0  0  0
 22 23  2  0  0  0
 25 26  2  0  0  0
 27 40  2  0  0  0
 28 29  2  0  0  0
 30 31  2  0  0  0
 33 34  2  0  0  0
 41 42  2  0  0  0
M  END
> <rmsd>
0.565157712

$$$$
MolPort-046-697-442 MCULE-7329160599


 65 70  0  0  0  0  0  0  0  0999 V2000
   -2.6978   14.2988   48.1087 C   0  0  0  0  0
   -2.9147   15.3535   46.1839 C   0  0  0  0  0
   -2.2126   15.3137   44.8407 C   0  0  0  0  0
   -0.3012   14.6736   43.7367 C   0  0  0  0  0
   -0.0053   12.4336   43.1806 C   0  0  0  0  0
   -0.6419   11.3039   42.3880 C   0  0  0  0  0
    1.3181   12.7574   42.4867 C   0  0  0  0  0
    0.2603   11.9658   44.6280 C   0  0  0  0  0
   -1.0060   11.6355   45.3902 C   0  0  0  0  0
   -0.9316   10.1587   45.6026 C   0  0  0  0  0
    0.5085    9.7929   45.3063 C   0  0  0  0  0
    0.5184    8.5975   44.3678 C   0  0  0  0  0
    1.2950    9.4550   46.5852 C   0  0  0  0  0
    0.8879    8.1643   47.2985 C   0  0  0  0  0
   -0.3741    8.3184   48.1416 C   0  0  0  0  0
   -0.4796    7.2352   49.1764 C   0  0  0  0  0
   -1.6667    7.0229   49.7482 C   0  0  0  0  0
    0.7775    6.6250   49.7646 C   0  0  0  0  0
    0.6641    5.1193   49.9804 C   0  0  0  0  0
    1.2940    4.8353   51.3323 C   0  0  0  0  0
    1.1913    6.1437   52.1043 C   0  0  0  0  0
    1.3372    7.2522   51.0509 C   0  0  0  0  0
    0.6073    8.5202   51.4916 C   0  0  0  0  0
    2.8047    7.5782   50.7575 C   0  0  0  0  0
    3.5928    7.8824   52.0162 C   0  0  0  0  0
    3.5511    6.6816   52.9647 C   0  0  0  0  0
    3.8458    7.9637   54.8666 C   0  0  0  0  0
    2.4733    7.6075   55.4493 C   0  0  0  0  0
    1.5145    7.2862   54.3115 C   0  0  0  0  0
    2.1133    6.2550   53.3495 C   0  0  0  0  0
    2.1726    4.9140   54.0799 C   0  0  0  0  0
    4.8783    8.4266   55.9236 C   0  0  0  0  0
    4.2708    9.4191   56.9168 C   0  0  0  0  0
    5.9550    9.1893   55.1748 C   0  0  0  0  0
    4.5843    6.5728   57.2988 C   0  0  0  0  0
    3.5089    6.3481   59.3119 C   0  0  0  0  0
    2.3370    7.2976   59.0663 C   0  0  0  0  0
    0.1368    7.3635   59.2171 C   0  0  0  0  0
    3.1413    4.8939   58.9400 C   0  0  0  0  0
    4.2651    4.2115   58.1611 C   0  0  0  0  0
    4.7245    5.0725   56.9800 C   0  0  0  0  0
    6.4393    4.1785   55.3654 C   0  0  0  0  0
    7.8545    3.8450   55.0613 C   0  0  0  0  0
   -0.3788   15.8742   42.7772 C   0  0  0  0  0
    1.3149   16.2274   40.9469 C   0  0  0  0  0
    2.7143   16.5257   40.5467 C   0  0  0  0  0
   -1.0399   17.0767   43.4514 C   0  0  0  0  0
   -2.3557   16.6670   44.1269 C   0  0  0  0  0
   -2.9229   14.0797   46.7505 O   0  0  0  0  0
   -0.8605   14.9472   45.0107 O   0  0  0  0  0
   -0.8964   13.5363   43.1460 O   0  0  0  0  0
    1.1461   10.8693   44.6572 O   0  0  0  0  0
    1.3493   10.5324   47.4787 O   0  0  0  0  0
    4.3660    6.8912   54.1035 O   0  0  0  0  0
    5.5211    7.3490   56.5884 O   0  0  0  0  0
    4.6939    6.8112   58.6841 O   0  0  0  0  0
    1.2793    6.9921   59.9255 O   0  0  0  0  0
    2.8589    4.1711   60.0995 O   0  0  0  0  0
    3.8368    2.9671   57.6965 O   0  0  0  0  0
    5.5518    3.9738   54.4962 O   0  0  0  0  0
    0.4510   15.9920   40.0623 O   0  0  0  0  0
   -1.2557   18.1010   42.5252 O   0  0  0  0  0
   -3.3794   16.5644   43.1787 O   0  0  0  0  0
    6.0990    4.7291   56.6385 N   0  0  0  0  0
    0.9598   16.2223   42.3307 N   0  0  0  0  0
  1 49  1  0  0  0
  2 49  1  0  0  0
  2  3  1  0  0  0
  3 50  1  0  0  0
  4 50  1  0  0  0
  4 51  1  0  0  0
  4 44  1  0  0  0
  5 51  1  0  0  0
  5  6  1  0  0  0
  5  7  1  0  0  0
  5  8  1  0  0  0
  8  9  1  0  0  0
  8 52  1  0  0  0
  9 10  1  0  0  0
 10 11  1  0  0  0
 11 12  1  0  0  0
 11 52  1  0  0  0
 11 13  1  0  0  0
 13 53  1  0  0  0
 13 14  1  0  0  0
 14 15  1  0  0  0
 15 16  1  0  0  0
 18 16  1  0  0  0
 18 19  1  0  0  0
 19 20  1  0  0  0
 20 21  1  0  0  0
 21 22  1  0  0  0
 22 23  1  0  0  0
 22 24  1  0  0  0
 22 18  1  0  0  0
 24 25  1  0  0  0
 25 26  1  0  0  0
 26 54  1  0  0  0
 27 54  1  0  0  0
 27 28  1  0  0  0
 27 32  1  0  0  0
 28 29  1  0  0  0
 29 30  1  0  0  0
 30 31  1  0  0  0
 30 26  1  0  0  0
 30 21  1  0  0  0
 32 33  1  0  0  0
 32 34  1  0  0  0
 32 55  1  0  0  0
 35 55  1  0  0  0
 35 56  1  0  0  0
 36 56  1  0  0  0
 36 37  1  0  0  0
 36 39  1  0  0  0
 37 57  1  0  0  0
 38 57  1  0  0  0
 39 58  1  0  0  0
 39 40  1  0  0  0
 40 59  1  0  0  0
 40 41  1  0  0  0
 41 64  1  0  0  0
 41 35  1  0  0  0
 43 42  1  0  0  0
 44 65  1  0  0  0
 44 47  1  0  0  0
 46 45  1  0  0  0
 47 62  1  0  0  0
 47 48  1  0  0  0
 48 63  1  0  0  0
 48  3  1  0  0  0
 64 42  1  0  0  0
 65 45  1  0  0  0
 16 17  2  0  0  0
 42 60  2  0  0  0
 45 61  2  0  0  0
M  END
> <rmsd>
0.764397383

$$$$
MolPort-047-483-016


 90 96  0  0  0  0  0  0  0  0999 V2000
    1.1437   17.3763   40.6485 C   0  0  0  0  0
    1.2334   15.9532   41.1636 C   0  0  0  0  0
   -0.0933   15.2387   40.9422 C   0  0  0  0  0
   -1.1360   15.6833   41.9612 C   0  0  0  0  0
   -0.8420   15.0629   43.3146 C   0  0  0  0  0
   -0.9164   12.8100   44.3342 C   0  0  0  0  0
   -1.1991   11.4533   44.1726 C   0  0  0  0  0
   -0.9876   10.5650   45.2309 C   0  0  0  0  0
   -0.4922   11.0280   46.4591 C   0  0  0  0  0
   -0.2167   12.3887   46.6184 C   0  0  0  0  0
   -0.4303   13.2763   45.5657 C   0  0  0  0  0
   -0.2449   10.0944   47.5683 C   0  0  0  0  0
    0.2831   10.4164   48.8086 C   0  0  0  0  0
    0.3085    9.1829   49.4463 C   0  0  0  0  0
    0.8021    8.9285   50.8125 C   0  0  0  0  0
    1.2239    9.9927   51.6142 C   0  0  0  0  0
    1.6935    9.7699   52.9125 C   0  0  0  0  0
    1.7742    8.4705   53.4249 C   0  0  0  0  0
    1.3526    7.4005   52.6287 C   0  0  0  0  0
    0.8769    7.6248   51.3283 C   0  0  0  0  0
    2.2846    8.2415   54.7835 C   0  0  0  0  0
    3.0746    6.6432   56.5600 C   0  0  0  0  0
    2.0739    6.8833   57.6878 C   0  0  0  0  0
    2.8037    7.2387   58.9784 C   0  0  0  0  0
    3.2247    5.9785   59.7373 C   0  0  0  0  0
    1.6447    4.0913   60.2939 C   0  0  0  0  0
    0.4828    3.5866   61.0970 C   0  0  0  0  0
   -0.8422    3.5738   60.3192 C   0  0  0  0  0
   -1.5214    2.2754   60.7710 C   0  0  0  0  0
   -2.4216    1.6390   59.7252 C   0  0  0  0  0
   -0.3967    1.3392   61.1603 C   0  0  0  0  0
    1.5645    1.8302   62.6369 C   0  0  0  0  0
    2.5218    2.7890   63.2966 C   0  0  0  0  0
    4.6860    2.2319   62.0968 C   0  0  0  0  0
    5.6544    2.5527   60.9959 C   0  0  0  0  0
    5.0609    1.5325   58.7784 C   0  0  0  0  0
    4.0885    1.4622   57.6501 C   0  0  0  0  0
    3.3674    0.1229   57.6585 C   0  0  0  0  0
    3.9591   -0.6893   56.5152 C   0  0  0  0  0
    4.5849    0.3328   55.5734 C   0  0  0  0  0
    5.4081    2.7093   55.8489 C   0  0  0  0  0
    5.7351    3.8493   56.7624 C   0  0  0  0  0
    3.6386    5.2597   56.6056 C   0  0  0  0  0
    7.2431    4.0756   56.8798 C   0  0  0  0  0
    7.8428    4.7048   55.6232 C   0  0  0  0  0
    6.4695    3.8425   61.2054 C   0  0  0  0  0
    7.9778    3.5516   61.2852 C   0  0  0  0  0
    8.3304    2.4699   62.2634 C   0  0  0  0  0
    9.0015    1.3391   61.8010 C   0  0  0  0  0
    9.2837    0.2813   62.6685 C   0  0  0  0  0
    8.8692    0.3387   63.9971 C   0  0  0  0  0
    8.1890    1.4675   64.4660 C   0  0  0  0  0
    7.9384    2.5380   63.6041 C   0  0  0  0  0
    1.8368    4.0519   63.8222 C   0  0  0  0  0
    0.7075    3.7719   64.8169 C   0  0  0  0  0
    1.1271    3.0898   66.0890 C   0  0  0  0  0
   -1.1108   13.6656   43.2513 O   0  0  0  0  0
   -0.4867    8.8047   47.5139 O   0  0  0  0  0
    2.5892    9.2242   55.5136 O   0  0  0  0  0
    1.9857    8.0431   59.7781 O   0  0  0  0  0
    4.2598    6.2781   60.6303 O   0  0  0  0  0
    2.1973    3.3363   59.4440 O   0  0  0  0  0
   -0.6078    3.5549   58.9344 O   0  0  0  0  0
    1.5444    0.6438   63.0593 O   0  0  0  0  0
    4.8001    1.1486   62.7408 O   0  0  0  0  0
    5.9701    0.6780   58.8899 O   0  0  0  0  0
    4.9729   -1.5231   57.0096 O   0  0  0  0  0
    5.7321    2.7677   54.6329 O   0  0  0  0  0
    2.8874    4.2654   56.8044 O   0  0  0  0  0
    7.5119    4.8919   57.9838 O   0  0  0  0  0
    6.0399    4.5885   62.3148 O   0  0  0  0  0
    8.7023    4.7245   61.5447 O   0  0  0  0  0
    9.1241   -0.7264   64.8519 O   0  0  0  0  0
    7.7459    1.5182   65.7833 O   0  0  0  0  0
    6.2597    0.5335   67.7136 O   0  0  0  0  0
    5.1463    1.6851   65.8614 O   0  0  0  0  0
    6.1191   -0.7075   65.4251 O   0  0  0  0  0
    2.7657    4.9197   64.3845 O   0  0  0  0  0
    2.3298    2.7937   66.3224 O   0  0  0  0  0
   -0.1604    8.2197   48.6260 N   0  0  0  0  0
    2.4674    6.9077   55.2618 N   0  0  0  0  0
    2.1011    5.4301   60.4768 N   0  0  0  0  0
    0.6988    2.2121   61.5479 N   0  0  0  0  0
    3.6118    3.1340   62.3914 N   0  0  0  0  0
    4.9577    2.5900   59.7267 N   0  0  0  0  0
    4.7671    1.5326   56.3657 N   0  0  0  0  0
    5.0366    5.0777   56.3852 N   0  0  0  0  0
    0.1259    2.7850   67.0536 N   0  0  0  0  0
    6.2786    0.7729   66.2249 S   0  0  0  0  0
    4.1085   -0.8450   65.1038 Na  0  0  0  0  0
  1  2  1  0  0  0
  2  3  1  0  0  0
  3  4  1  0  0  0
  4  5  1  0  0  0
  5 57  1  0  0  0
  6 57  1  0  0  0
  7  8  1  0  0  0
  9 10  1  0  0  0
  9 12  1  0  0  0
 11  6  1  0  0  0
 12 58  1  0  0  0
 13 14  1  0  0  0
 14 15  1  0  0  0
 16 17  1  0  0  0
 18 19  1  0  0  0
 18 21  1  0  0  0
 20 15  1  0  0  0
 21 81  1  0  0  0
 22 81  1  0  0  0
 22 23  1  0  0  0
 22 43  1  0  0  0
 23 24  1  0  0  0
 24 60  1  0  0  0
 24 25  1  0  0  0
 25 61  1  0  0  0
 25 82  1  0  0  0
 27 26  1  0  0  0
 27 28  1  0  0  0
 27 83  1  0  0  0
 28 63  1  0  0  0
 28 29  1  0  0  0
 29 30  1  0  0  0
 29 31  1  0  0  0
 31 83  1  0  0  0
 33 32  1  0  0  0
 33 84  1  0  0  0
 33 54  1  0  0  0
 35 34  1  0  0  0
 35 85  1  0  0  0
 35 46  1  0  0  0
 37 36  1  0  0  0
 37 38  1  0  0  0
 37 86  1  0  0  0
 38 39  1  0  0  0
 39 67  1  0  0  0
 39 40  1  0  0  0
 40 86  1  0  0  0
 42 41  1  0  0  0
 42 87  1  0  0  0
 42 44  1  0  0  0
 44 45  1  0  0  0
 44 70  1  0  0  0
 46 71  1  0  0  0
 46 47  1  0  0  0
 47 72  1  0  0  0
 47 48  1  0  0  0
 49 50  1  0  0  0
 51 73  1  0  0  0
 51 52  1  0  0  0
 52 74  1  0  0  0
 53 48  1  0  0  0
 54 78  1  0  0  0
 54 55  1  0  0  0
 55 56  1  0  0  0
 56 88  1  0  0  0
 77 90  1  0  0  0
 80 58  1  0  0  0
 82 26  1  0  0  0
 83 32  1  0  0  0
 84 34  1  0  0  0
 85 36  1  0  0  0
 86 41  1  0  0  0
 87 43  1  0  0  0
 89 74  1  0  0  0
 89 77  1  0  0  0
  6  7  2  0  0  0
  8  9  2  0  0  0
 10 11  2  0  0  0
 12 13  2  0  0  0
 14 80  2  0  0  0
 15 16  2  0  0  0
 17 18  2  0  0  0
 19 20  2  0  0  0
 21 59  2  0  0  0
 26 62  2  0  0  0
 32 64  2  0  0  0
 34 65  2  0  0  0
 36 66  2  0  0  0
 41 68  2  0  0  0
 43 69  2  0  0  0
 48 49  2  0  0  0
 50 51  2  0  0  0
 52 53  2  0  0  0
 56 79  2  0  0  0
 89 75  2  0  0  0
 89 76  2  0  0  0
M  END
> <rmsd>
0.65834254

$$$$
MolPort-047-367-627 85540112 CHEMBL2103826 MCULE-4233759940 MCULE-7797109616 PubChem-9832404 ZINC000085540112


 58 59  0  0  0  0  0  0  0  0999 V2000
    0.7242    7.5303   47.2957 C   0  0  0  0  0
   -0.2626    8.4817   47.9575 C   0  0  0  0  0
    0.1020    8.6827   49.4268 C   0  0  0  0  0
   -1.0692    9.3264   50.1699 C   0  0  0  0  0
    1.4230    9.4641   49.5965 C   0  0  0  0  0
    2.9881    8.6128   51.3795 C   0  0  0  0  0
    3.5070    8.7275   52.7823 C   0  0  0  0  0
    4.9935    9.0445   52.8262 C   0  0  0  0  0
    3.7456    6.2378   53.3783 C   0  0  0  0  0
    3.3713    5.1020   54.2780 C   0  0  0  0  0
    5.3741    4.2237   55.5399 C   0  0  0  0  0
    6.3081    4.3627   56.6992 C   0  0  0  0  0
    7.6043    5.0038   56.2352 C   0  0  0  0  0
    8.6078    3.8644   56.0873 C   0  0  0  0  0
    8.0673    2.7184   56.9266 C   0  0  0  0  0
    5.9016    2.2954   58.1645 C   0  0  0  0  0
    4.5277    2.7149   58.6000 C   0  0  0  0  0
    3.5133    2.4338   57.5063 C   0  0  0  0  0
    3.3950    4.7690   59.5820 C   0  0  0  0  0
    3.4565    6.2418   59.8403 C   0  0  0  0  0
    3.8341    6.5314   61.2888 C   0  0  0  0  0
    5.2832    6.2608   61.5299 C   0  0  0  0  0
    1.8835    5.0760   54.6418 C   0  0  0  0  0
    1.5387    6.0188   55.7841 C   0  0  0  0  0
    1.4564    3.6630   54.9938 C   0  0  0  0  0
    1.3460   10.8941   49.1226 C   0  0  0  0  0
    2.8853   10.4120   47.1666 C   0  0  0  0  0
    3.6296   11.2870   46.1769 C   0  0  0  0  0
    3.0063   12.6781   46.2584 C   0  0  0  0  0
    2.0600   12.6695   47.4468 C   0  0  0  0  0
    0.6962   13.1049   47.0153 C   0  0  0  0  0
   -1.3805   12.6940   45.6302 C   0  0  0  0  0
   -1.6889   12.0815   44.2678 C   0  0  0  0  0
   -2.8730   12.7773   43.6080 C   0  0  0  0  0
   -2.4957   14.1451   43.1382 C   0  0  0  0  0
   -2.3484   12.2037   46.6634 C   0  0  0  0  0
    1.8777    9.4176   50.9783 N   0  0  0  0  0
    3.1842    7.5451   53.5773 N   0  0  0  0  0
    4.2313    5.0789   55.4559 N   0  0  0  0  0
    6.6850    3.0581   57.2236 N   0  0  0  0  0
    4.5156    4.1238   58.9728 N   0  0  0  0  0
    2.1778    6.8623   59.5301 N   0  0  0  0  0
    5.6743    5.2564   62.4594 N   0  0  0  0  0
    2.0308   11.2984   47.9263 N   0  0  0  0  0
   -0.0183   12.3609   46.0216 N   0  0  0  0  0
   -3.1087   15.2875   43.7178 N   0  0  0  0  0
    3.5242    7.8123   50.5627 O   0  0  0  0  0
    5.2155   10.2983   52.2577 O   0  0  0  0  0
    4.6114    6.0449   52.4850 O   0  0  0  0  0
    5.6277    3.4054   54.6156 O   0  0  0  0  0
    6.3735    1.2330   58.6442 O   0  0  0  0  0
    2.3830    4.1002   59.9329 O   0  0  0  0  0
    6.1574    6.9225   60.9198 O   0  0  0  0  0
    0.6843   11.7358   49.7838 O   0  0  0  0  0
    0.1790   14.1242   47.5423 O   0  0  0  0  0
   -1.6307   14.2892   42.2340 O   0  0  0  0  0
   -3.0744   13.0294   47.2838 O   0  0  0  0  0
   -2.4409   10.8441   46.9543 O   0  0  0  0  0
  1  2  1  0  0  0
  3  2  1  0  0  0
  3  4  1  0  0  0
  3  5  1  0  0  0
  5 37  1  0  0  0
  5 26  1  0  0  0
  7  6  1  0  0  0
  7  8  1  0  0  0
  7 38  1  0  0  0
  8 48  1  0  0  0
 10  9  1  0  0  0
 10 39  1  0  0  0
 10 23  1  0  0  0
 12 11  1  0  0  0
 12 13  1  0  0  0
 12 40  1  0  0  0
 13 14  1  0  0  0
 14 15  1  0  0  0
 15 40  1  0  0  0
 17 16  1  0  0  0
 17 18  1  0  0  0
 17 41  1  0  0  0
 20 19  1  0  0  0
 20 42  1  0  0  0
 20 21  1  0  0  0
 21 22  1  0  0  0
 22 43  1  0  0  0
 23 24  1  0  0  0
 23 25  1  0  0  0
 26 44  1  0  0  0
 27 44  1  0  0  0
 27 28  1  0  0  0
 28 29  1  0  0  0
 29 30  1  0  0  0
 30 31  1  0  0  0
 30 44  1  0  0  0
 31 45  1  0  0  0
 32 45  1  0  0  0
 32 33  1  0  0  0
 32 36  1  0  0  0
 33 34  1  0  0  0
 34 35  1  0  0  0
 35 46  1  0  0  0
 36 58  1  0  0  0
 37  6  1  0  0  0
 38  9  1  0  0  0
 39 11  1  0  0  0
 40 16  1  0  0  0
 41 19  1  0  0  0
  6 47  2  0  0  0
  9 49  2  0  0  0
 11 50  2  0  0  0
 16 51  2  0  0  0
 19 52  2  0  0  0
 22 53  2  0  0  0
 26 54  2  0  0  0
 31 55  2  0  0  0
 35 56  2  0  0  0
 36 57  2  0  0  0
M  END
> <rmsd>
0.663005769

$$$$
MolPort-047-802-309


 96101  0  0  0  0  0  0  0  0999 V2000
   -2.6051    7.6111   49.4479 C   0  0  0  0  0
   -2.0976    8.7549   50.3145 C   0  0  0  0  0
   -0.6238    8.5909   50.6922 C   0  0  0  0  0
    0.2949    7.2061   52.5867 C   0  0  0  0  0
    0.4867    5.8846   53.2473 C   0  0  0  0  0
   -0.8356    5.1498   53.4196 C   0  0  0  0  0
    1.5466    5.0446   52.5268 C   0  0  0  0  0
    2.1858    4.0441   53.4930 C   0  0  0  0  0
    3.1034    3.0700   52.7678 C   0  0  0  0  0
    4.0493    5.5988   54.3181 C   0  0  0  0  0
    4.6439    6.3603   55.4678 C   0  0  0  0  0
    5.3133    8.7708   55.0698 C   0  0  0  0  0
    6.4080    9.7269   54.7864 C   0  0  0  0  0
    8.7283   10.0042   54.3450 C   0  0  0  0  0
    7.3592   11.9315   54.4867 C   0  0  0  0  0
    6.2315   11.1295   54.7315 C   0  0  0  0  0
    4.8931   11.7782   54.9131 C   0  0  0  0  0
   10.0788    9.3858   54.1634 C   0  0  0  0  0
   10.9860    9.7588   55.3400 C   0  0  0  0  0
   10.7275    8.9503   56.5758 C   0  0  0  0  0
   11.4658    8.7596   52.3820 C   0  0  0  0  0
   12.2656    9.2099   51.1646 C   0  0  0  0  0
   11.3860    9.5190   49.9929 C   0  0  0  0  0
    5.3313    5.4608   56.5068 C   0  0  0  0  0
    4.1809    5.2272   58.3903 C   0  0  0  0  0
    4.3577    4.7243   60.7112 C   0  0  0  0  0
    5.4704    4.5499   61.7354 C   0  0  0  0  0
    3.6207    6.0631   60.8998 C   0  0  0  0  0
    2.4258    6.1316   59.9372 C   0  0  0  0  0
    2.6726    5.3537   58.6392 C   0  0  0  0  0
    0.9049    4.1307   58.0370 C   0  0  0  0  0
   -0.2607    2.6135   59.4210 C   0  0  0  0  0
    0.7505    2.3756   60.5402 C   0  0  0  0  0
   -0.2492    1.5097   58.3557 C   0  0  0  0  0
    0.8497    1.7181   57.3152 C   0  0  0  0  0
    2.8620    0.3017   57.2602 C   0  0  0  0  0
    0.9173    3.1704   56.8457 C   0  0  0  0  0
    6.4427    4.6438   55.9271 C   0  0  0  0  0
    7.7763    4.9946   55.9351 C   0  0  0  0  0
    7.5203    3.1331   54.8985 C   0  0  0  0  0
    0.3350    8.8074   49.5573 C   0  0  0  0  0
    0.7622    9.4352   47.1382 C   0  0  0  0  0
    1.5147   10.7365   47.3693 C   0  0  0  0  0
    0.6148   11.9068   47.1550 C   0  0  0  0  0
   -0.6508   13.3839   46.0329 C   0  0  0  0  0
   -0.7737   13.9498   47.3080 C   0  0  0  0  0
   -1.2726   13.9666   44.8373 C   0  0  0  0  0
   -1.7517   14.1724   42.6394 C   0  0  0  0  0
   -2.4226   15.2869   43.1294 C   0  0  0  0  0
   -3.1634   16.2597   42.3159 C   0  0  0  0  0
   -3.8967   17.0573   40.0387 C   0  0  0  0  0
   -3.7585   16.6349   38.5890 C   0  0  0  0  0
   -2.3249   16.8093   38.1277 C   0  0  0  0  0
   -0.4483   16.2544   35.9967 C   0  0  0  0  0
   -3.0604   17.3327   35.3615 C   0  0  0  0  0
   -2.8818    8.8368   51.4640 O   0  0  0  0  0
    0.7632    8.2386   53.1376 O   0  0  0  0  0
    1.0025    4.3899   51.4157 O   0  0  0  0  0
    4.5524    5.6973   53.1651 O   0  0  0  0  0
    4.1655    9.1651   55.3927 O   0  0  0  0  0
    9.8956    7.9994   56.5759 O   0  0  0  0  0
   11.5445    8.8979   48.9141 O   0  0  0  0  0
    4.4053    4.6317   57.1507 O   0  0  0  0  0
    4.8595    4.4898   59.3944 O   0  0  0  0  0
    4.9200    4.3688   63.0049 O   0  0  0  0  0
    4.5043    7.1307   60.6862 O   0  0  0  0  0
    2.0884    7.4552   59.6422 O   0  0  0  0  0
    2.1119    4.0775   58.7489 O   0  0  0  0  0
   -0.2155    3.9333   58.8884 O   0  0  0  0  0
    0.5667    3.3147   61.5572 O   0  0  0  0  0
   -1.4919    1.4473   57.7236 O   0  0  0  0  0
    2.1090    1.3191   57.8433 O   0  0  0  0  0
    2.4136   -0.3572   56.2834 O   0  0  0  0  0
   -0.1518    3.4504   55.9892 O   0  0  0  0  0
    1.5725    8.7025   49.7745 O   0  0  0  0  0
   -3.7321   17.2419   42.8659 O   0  0  0  0  0
   -0.3847    7.3039   51.3334 N   0  0  0  0  0
    2.9181    4.7434   54.5468 N   0  0  0  0  0
    5.5816    7.3710   54.9997 N   0  0  0  0  0
    7.6531    9.2132   54.5879 N   0  0  0  0  0
    8.5766   11.3542   54.3028 N   0  0  0  0  0
    7.2444   13.3548   54.4400 N   0  0  0  0  0
   11.4515    9.2631   57.7611 N   0  0  0  0  0
   10.6682    9.8528   52.9219 N   0  0  0  0  0
   13.1174   10.3446   51.4805 N   0  0  0  0  0
   10.3831   10.5269   50.0711 N   0  0  0  0  0
    4.1625    0.0313   57.7539 N   0  0  0  0  0
    8.4532    4.0324   55.2835 N   0  0  0  0  0
    6.2719    3.4829   55.2736 N   0  0  0  0  0
   -0.1375    9.1667   48.2516 N   0  0  0  0  0
    0.1138   12.2583   45.9524 N   0  0  0  0  0
   -1.1169   13.4448   43.5981 N   0  0  0  0  0
   -3.2260   16.0972   40.9000 N   0  0  0  0  0
    0.1328   12.9803   48.3486 S   0  0  0  0  0
   -2.2090   15.3629   44.7994 S   0  0  0  0  0
   -2.1618   16.2553   36.4499 S   0  0  0  0  0
  2  1  1  0  0  0
  2 56  1  0  0  0
  2  3  1  0  0  0
  3 77  1  0  0  0
  3 41  1  0  0  0
  5  4  1  0  0  0
  5  6  1  0  0  0
  5  7  1  0  0  0
  7 58  1  0  0  0
  7  8  1  0  0  0
  8  9  1  0  0  0
  8 78  1  0  0  0
 11 10  1  0  0  0
 11 79  1  0  0  0
 11 24  1  0  0  0
 12 13  1  0  0  0
 14 80  1  0  0  0
 15 81  1  0  0  0
 15 82  1  0  0  0
 16 13  1  0  0  0
 17 16  1  0  0  0
 18 14  1  0  0  0
 18 19  1  0  0  0
 18 84  1  0  0  0
 19 20  1  0  0  0
 20 83  1  0  0  0
 21 84  1  0  0  0
 21 22  1  0  0  0
 22 85  1  0  0  0
 22 23  1  0  0  0
 23 86  1  0  0  0
 24 63  1  0  0  0
 24 38  1  0  0  0
 25 63  1  0  0  0
 25 64  1  0  0  0
 26 64  1  0  0  0
 26 27  1  0  0  0
 26 28  1  0  0  0
 27 65  1  0  0  0
 28 66  1  0  0  0
 28 29  1  0  0  0
 29 67  1  0  0  0
 29 30  1  0  0  0
 30 68  1  0  0  0
 30 25  1  0  0  0
 31 68  1  0  0  0
 31 69  1  0  0  0
 32 69  1  0  0  0
 32 33  1  0  0  0
 32 34  1  0  0  0
 33 70  1  0  0  0
 34 71  1  0  0  0
 34 35  1  0  0  0
 35 72  1  0  0  0
 35 37  1  0  0  0
 36 72  1  0  0  0
 36 87  1  0  0  0
 37 74  1  0  0  0
 37 31  1  0  0  0
 38 89  1  0  0  0
 39 88  1  0  0  0
 41 90  1  0  0  0
 42 90  1  0  0  0
 42 43  1  0  0  0
 43 44  1  0  0  0
 44 94  1  0  0  0
 45 91  1  0  0  0
 45 47  1  0  0  0
 46 94  1  0  0  0
 47 95  1  0  0  0
 48 92  1  0  0  0
 49 95  1  0  0  0
 49 50  1  0  0  0
 50 93  1  0  0  0
 51 93  1  0  0  0
 51 52  1  0  0  0
 52 53  1  0  0  0
 53 96  1  0  0  0
 54 96  1  0  0  0
 55 96  1  0  0  0
 77  4  1  0  0  0
 78 10  1  0  0  0
 79 12  1  0  0  0
 88 40  1  0  0  0
  4 57  2  0  0  0
 10 59  2  0  0  0
 12 60  2  0  0  0
 13 80  2  0  0  0
 14 81  2  0  0  0
 15 16  2  0  0  0
 20 61  2  0  0  0
 23 62  2  0  0  0
 36 73  2  0  0  0
 38 39  2  0  0  0
 40 89  2  0  0  0
 41 75  2  0  0  0
 44 91  2  0  0  0
 45 46  2  0  0  0
 47 92  2  0  0  0
 48 49  2  0  0  0
 50 76  2  0  0  0
M  CHG  2  65  -1  96   1
M  END
> <rmsd>
0.722017109

$$$$
MolPort-004-949-386 PubChem-24207244 PubChem-24207245


 80 89  0  0  0  0  0  0  0  0999 V2000
    6.3314    8.3805   54.2791 C   0  0  0  0  0
    5.6050    7.3207   55.0374 C   0  0  0  0  0
    5.6835    5.9668   54.6788 C   0  0  0  0  0
    4.9841    5.0055   55.4365 C   0  0  0  0  0
    4.2220    5.3885   56.5770 C   0  0  0  0  0
    3.5198    4.3939   57.4508 C   0  0  0  0  0
    3.5344    3.0913   57.1370 C   0  0  0  0  0
    2.9279    0.6957   57.5058 C   0  0  0  0  0
    3.3425    0.3304   56.2147 C   0  0  0  0  0
    3.3469   -1.0147   55.8297 C   0  0  0  0  0
    2.9471   -2.0033   56.7323 C   0  0  0  0  0
    2.5357   -1.6487   58.0241 C   0  0  0  0  0
    2.5246   -0.2979   58.4047 C   0  0  0  0  0
    2.1405   -2.6924   58.9928 C   0  0  0  0  0
    3.0869   -3.3029   59.7480 C   0  0  0  0  0
    2.7568   -4.4370   60.6454 C   0  0  0  0  0
    3.7030   -5.0540   61.3583 C   0  0  0  0  0
    5.1058   -4.6165   61.2676 C   0  0  0  0  0
    5.4625   -3.5086   60.3695 C   0  0  0  0  0
    4.5149   -2.8954   59.6550 C   0  0  0  0  0
    0.6973   -3.0485   59.0651 C   0  0  0  0  0
    0.0686   -3.2776   60.3004 C   0  0  0  0  0
   -1.2961   -3.5788   60.3586 C   0  0  0  0  0
   -2.0486   -3.6449   59.1799 C   0  0  0  0  0
   -1.4358   -3.4056   57.9470 C   0  0  0  0  0
   -0.0716   -3.1036   57.8902 C   0  0  0  0  0
    2.8240    4.9009   58.6591 C   0  0  0  0  0
    2.7553    6.3489   58.9129 C   0  0  0  0  0
    3.3659    7.2335   58.1053 C   0  0  0  0  0
    4.1517    6.7639   56.9179 C   0  0  0  0  0
    4.8447    7.6999   56.1387 C   0  0  0  0  0
    3.2305    8.7047   58.4322 C   0  0  0  0  0
    4.5656    9.3405   58.7658 C   0  0  0  0  0
    2.5286    9.4660   57.3278 C   0  0  0  0  0
    6.4948    5.5340   53.5104 C   0  0  0  0  0
    7.6572    4.7690   53.6950 C   0  0  0  0  0
    8.3328    4.2571   52.5942 C   0  0  0  0  0
    7.9069    4.5162   51.2869 C   0  0  0  0  0
    8.6340    3.8871   50.1396 C   0  0  0  0  0
    8.1968    4.0546   48.8810 C   0  0  0  0  0
    7.0336    4.9036   48.5816 C   0  0  0  0  0
    6.3907    5.6797   49.6707 C   0  0  0  0  0
    5.5734    6.7135   49.4184 C   0  0  0  0  0
    4.4853    8.3261   47.8304 C   0  0  0  0  0
    4.2159    9.2584   48.8408 C   0  0  0  0  0
    3.5860   10.4615   48.5300 C   0  0  0  0  0
    3.2175   10.7360   47.2108 C   0  0  0  0  0
    3.4545    9.8070   46.1881 C   0  0  0  0  0
    4.1048    8.6085   46.5172 C   0  0  0  0  0
    3.0865   10.0731   44.7628 C   0  0  0  0  0
    2.1041   10.9291   44.3742 C   0  0  0  0  0
    1.8459   11.1822   42.9296 C   0  0  0  0  0
    0.8726   12.0082   42.5292 C   0  0  0  0  0
    0.0260   12.6894   43.5212 C   0  0  0  0  0
    0.2649   12.4597   44.9533 C   0  0  0  0  0
    1.2354   11.6312   45.3499 C   0  0  0  0  0
    3.8487    9.3324   43.7349 C   0  0  0  0  0
    3.2929    8.1853   43.1431 C   0  0  0  0  0
    4.0179    7.4622   42.1919 C   0  0  0  0  0
    5.3013    7.8800   41.8311 C   0  0  0  0  0
    5.8603    9.0222   42.4248 C   0  0  0  0  0
    5.1385    9.7445   43.3781 C   0  0  0  0  0
    6.7826    5.3557   51.0757 C   0  0  0  0  0
    6.0614    5.8342   52.2034 C   0  0  0  0  0
    9.8403    3.0039   50.3560 C   0  0  0  0  0
   10.9739    3.7563   51.0156 C   0  0  0  0  0
    9.4923    1.7543   51.1448 C   0  0  0  0  0
    8.1887    4.4465   55.0547 C   0  0  0  0  0
    2.9235    2.0667   57.9228 N   0  0  0  0  0
    6.0201   -5.2168   61.9547 N   0  0  0  0  0
   -3.4372   -3.9553   59.2371 N   0  0  0  0  0
    5.1939    7.1155   48.1011 N   0  0  0  0  0
   -0.9113   13.4881   43.1363 N   0  0  0  0  0
    6.0361    7.1490   40.8587 N   0  0  0  0  0
    2.2780    4.1143   59.4783 O   0  0  0  0  0
    2.0268    6.7917   60.0160 O   0  0  0  0  0
    5.0659    3.6744   55.0417 O   0  0  0  0  0
    6.6048    4.9605   47.3974 O   0  0  0  0  0
    4.8929    6.5804   52.0409 O   0  0  0  0  0
    8.8509    3.4271   47.8247 O   0  0  0  0  0
  1  2  1  0  0  0
  3  4  1  0  0  0
  3 35  1  0  0  0
  4 77  1  0  0  0
  5  6  1  0  0  0
  6 27  1  0  0  0
  7 69  1  0  0  0
  9 10  1  0  0  0
 11 12  1  0  0  0
 12 14  1  0  0  0
 13  8  1  0  0  0
 14 21  1  0  0  0
 15 16  1  0  0  0
 17 18  1  0  0  0
 18 19  1  0  0  0
 20 15  1  0  0  0
 22 23  1  0  0  0
 24 25  1  0  0  0
 24 71  1  0  0  0
 26 21  1  0  0  0
 27 28  1  0  0  0
 28 76  1  0  0  0
 29 30  1  0  0  0
 30  5  1  0  0  0
 31  2  1  0  0  0
 32 29  1  0  0  0
 32 33  1  0  0  0
 32 34  1  0  0  0
 36 37  1  0  0  0
 38 39  1  0  0  0
 40 41  1  0  0  0
 40 80  1  0  0  0
 41 42  1  0  0  0
 42 63  1  0  0  0
 43 72  1  0  0  0
 45 46  1  0  0  0
 47 48  1  0  0  0
 48 50  1  0  0  0
 49 44  1  0  0  0
 50 57  1  0  0  0
 51 52  1  0  0  0
 53 54  1  0  0  0
 54 55  1  0  0  0
 56 51  1  0  0  0
 58 59  1  0  0  0
 60 61  1  0  0  0
 60 74  1  0  0  0
 62 57  1  0  0  0
 63 38  1  0  0  0
 64 79  1  0  0  0
 64 35  1  0  0  0
 65 39  1  0  0  0
 65 66  1  0  0  0
 65 67  1  0  0  0
 68 36  1  0  0  0
 69  8  1  0  0  0
 72 44  1  0  0  0
  2  3  2  0  0  0
  4  5  2  0  0  0
  6  7  2  0  0  0
  8  9  2  0  0  0
 10 11  2  0  0  0
 12 13  2  0  0  0
 14 15  2  0  0  0
 16 17  2  0  0  0
 18 70  2  0  0  0
 19 20  2  0  0  0
 21 22  2  0  0  0
 23 24  2  0  0  0
 25 26  2  0  0  0
 27 75  2  0  0  0
 28 29  2  0  0  0
 30 31  2  0  0  0
 35 36  2  0  0  0
 37 38  2  0  0  0
 39 40  2  0  0  0
 41 78  2  0  0  0
 42 43  2  0  0  0
 44 45  2  0  0  0
 46 47  2  0  0  0
 48 49  2  0  0  0
 50 51  2  0  0  0
 52 53  2  0  0  0
 54 73  2  0  0  0
 55 56  2  0  0  0
 57 58  2  0  0  0
 59 60  2  0  0  0
 61 62  2  0  0  0
 63 64  2  0  0  0
M  END
> <rmsd>
0.552767456

$$$$
MolPort-046-703-396 NSC61586 PubChem-21226163


 91 96  0  0  0  0  0  0  0  0999 V2000
    7.9022    5.8211   57.5004 C   0  0  0  0  0
    8.2587    4.6979   56.5732 C   0  0  0  0  0
    7.3340    4.1526   55.6538 C   0  0  0  0  0
    8.9600    2.5596   54.9711 C   0  0  0  0  0
    9.5349    4.1232   56.6445 C   0  0  0  0  0
    9.3356    1.4200   54.0695 C   0  0  0  0  0
   10.5059    1.7600   53.1454 C   0  0  0  0  0
   10.0968    2.7387   52.0988 C   0  0  0  0  0
   10.7469    0.2445   55.6367 C   0  0  0  0  0
   11.3342   -1.1418   55.8405 C   0  0  0  0  0
   12.0261   -1.6103   54.6031 C   0  0  0  0  0
    5.9702    4.6947   55.4615 C   0  0  0  0  0
    4.3312    6.6190   55.6524 C   0  0  0  0  0
    3.7559    6.9466   57.0337 C   0  0  0  0  0
    3.4733    5.6864   57.8027 C   0  0  0  0  0
    2.4777    4.7896   57.5035 C   0  0  0  0  0
    3.5721    4.1169   59.2249 C   0  0  0  0  0
    3.8966    8.6512   58.5736 C   0  0  0  0  0
    4.8049    9.7482   59.1990 C   0  0  0  0  0
    3.9536   10.9731   59.6231 C   0  0  0  0  0
    2.5301   10.5709   60.0088 C   0  0  0  0  0
    1.8845    9.7562   58.8694 C   0  0  0  0  0
    0.9101    8.6933   59.3720 C   0  0  0  0  0
    5.7729   10.2615   58.1406 C   0  0  0  0  0
    4.7550    8.7104   61.2800 C   0  0  0  0  0
    4.9883    9.4733   62.5952 C   0  0  0  0  0
    4.0215    8.9281   63.6686 C   0  0  0  0  0
    4.0809    7.3830   63.7012 C   0  0  0  0  0
    3.9611    6.8376   62.2673 C   0  0  0  0  0
    3.9814    5.3192   62.2560 C   0  0  0  0  0
    4.3122    9.5296   65.0312 C   0  0  0  0  0
    4.3711    7.8131   54.7382 C   0  0  0  0  0
    3.8021   10.2462   54.2897 C   0  0  0  0  0
    5.1719   10.8621   54.5289 C   0  0  0  0  0
    2.7131   11.2616   54.6506 C   0  0  0  0  0
    1.3486   10.9858   54.0070 C   0  0  0  0  0
    0.7953    9.5960   54.3041 C   0  0  0  0  0
    1.3684   11.2697   52.5374 C   0  0  0  0  0
    2.3239   10.6580   50.2129 C   0  0  0  0  0
    2.9925   11.9700   49.9337 C   0  0  0  0  0
    4.4695   12.0127   49.7512 C   0  0  0  0  0
    1.0878   10.4282   49.3904 C   0  0  0  0  0
   -1.4183   10.5565   49.1185 C   0  0  0  0  0
   -2.2439   11.8248   48.9958 C   0  0  0  0  0
   -1.7929   12.6335   47.8238 C   0  0  0  0  0
   -2.0407   13.6575   45.7766 C   0  0  0  0  0
   -0.8693   14.4335   46.3673 C   0  0  0  0  0
   -1.5767   12.8446   44.6053 C   0  0  0  0  0
   -0.7828   12.4522   42.5404 C   0  0  0  0  0
   -0.8948   11.1230   42.9563 C   0  0  0  0  0
   -0.2910   12.8274   41.2095 C   0  0  0  0  0
    7.7144    3.0932   54.8875 N   0  0  0  0  0
    9.8602    3.0804   55.8406 N   0  0  0  0  0
   10.5120    4.6341   57.5470 N   0  0  0  0  0
    9.1214    2.3796   51.1267 N   0  0  0  0  0
    9.5530    0.1658   54.7991 N   0  0  0  0  0
   11.5775   -2.7937   53.9511 N   0  0  0  0  0
   12.2706   -1.1175   56.9520 N   0  0  0  0  0
    5.6688    6.0528   55.7904 N   0  0  0  0  0
    2.5505    3.7965   58.4066 N   0  0  0  0  0
    4.1668    5.2752   58.8765 N   0  0  0  0  0
    3.3267   10.3256   65.6915 N   0  0  0  0  0
    3.6609    9.0166   55.0640 N   0  0  0  0  0
    2.1186   10.4303   51.6456 N   0  0  0  0  0
   -0.1999   10.8224   49.8688 N   0  0  0  0  0
   -2.5608   12.8156   46.8211 N   0  0  0  0  0
   -1.1617   13.3962   43.4476 N   0  0  0  0  0
   -0.2323   14.1987   40.8319 N   0  0  0  0  0
   10.6195    3.8822   52.0727 O   0  0  0  0  0
   13.0035   -0.9687   54.1345 O   0  0  0  0  0
    5.0752    3.9610   54.9586 O   0  0  0  0  0
    4.6401    7.7950   57.7291 O   0  0  0  0  0
    2.7955    9.2466   57.9093 O   0  0  0  0  0
    1.5728    7.7471   60.1543 O   0  0  0  0  0
    1.7637   11.7080   60.2615 O   0  0  0  0  0
    4.5643   11.7125   60.6419 O   0  0  0  0  0
    5.5865    9.2240   60.2634 O   0  0  0  0  0
    5.0066    7.3361   61.4649 O   0  0  0  0  0
    2.7829    4.8308   62.7719 O   0  0  0  0  0
    5.2674    6.9276   64.2877 O   0  0  0  0  0
    5.4207    9.3333   65.6018 O   0  0  0  0  0
    2.7226    9.2939   63.2932 O   0  0  0  0  0
    6.3242    9.3358   62.9902 O   0  0  0  0  0
    5.0242    7.7421   53.6585 O   0  0  0  0  0
    0.7437   12.2736   52.1038 O   0  0  0  0  0
    2.3472   13.0058   49.8847 O   0  0  0  0  0
    1.2035    9.9128   48.2427 O   0  0  0  0  0
    0.0819   11.9417   40.3939 O   0  0  0  0  0
    2.5874   11.3979   56.0332 O   0  0  0  0  0
   -0.2255   13.4864   47.7844 S   0  0  0  0  0
   -1.4845   11.1665   44.5312 S   0  0  0  0  0
  1  2  1  0  0  0
  3 52  1  0  0  0
  3 12  1  0  0  0
  4 53  1  0  0  0
  5 54  1  0  0  0
  5  2  1  0  0  0
  6  4  1  0  0  0
  6  7  1  0  0  0
  6 56  1  0  0  0
  7  8  1  0  0  0
  8 55  1  0  0  0
  9 56  1  0  0  0
 10  9  1  0  0  0
 10 11  1  0  0  0
 10 58  1  0  0  0
 11 57  1  0  0  0
 12 59  1  0  0  0
 13 59  1  0  0  0
 13 14  1  0  0  0
 13 32  1  0  0  0
 14 15  1  0  0  0
 14 72  1  0  0  0
 16 60  1  0  0  0
 17 61  1  0  0  0
 18 72  1  0  0  0
 18 19  1  0  0  0
 18 73  1  0  0  0
 19 20  1  0  0  0
 19 24  1  0  0  0
 19 77  1  0  0  0
 20 21  1  0  0  0
 20 76  1  0  0  0
 21 22  1  0  0  0
 21 75  1  0  0  0
 22 73  1  0  0  0
 22 23  1  0  0  0
 23 74  1  0  0  0
 25 77  1  0  0  0
 25 26  1  0  0  0
 25 78  1  0  0  0
 26 27  1  0  0  0
 26 83  1  0  0  0
 27 28  1  0  0  0
 27 31  1  0  0  0
 27 82  1  0  0  0
 28 29  1  0  0  0
 28 80  1  0  0  0
 29 78  1  0  0  0
 29 30  1  0  0  0
 30 79  1  0  0  0
 31 62  1  0  0  0
 32 63  1  0  0  0
 33 63  1  0  0  0
 33 34  1  0  0  0
 33 35  1  0  0  0
 35 36  1  0  0  0
 35 89  1  0  0  0
 36 37  1  0  0  0
 36 38  1  0  0  0
 38 64  1  0  0  0
 39 64  1  0  0  0
 39 40  1  0  0  0
 39 42  1  0  0  0
 41 40  1  0  0  0
 42 65  1  0  0  0
 43 65  1  0  0  0
 43 44  1  0  0  0
 44 45  1  0  0  0
 45 90  1  0  0  0
 46 66  1  0  0  0
 46 47  1  0  0  0
 46 48  1  0  0  0
 47 90  1  0  0  0
 48 91  1  0  0  0
 49 67  1  0  0  0
 49 51  1  0  0  0
 50 91  1  0  0  0
 51 68  1  0  0  0
 61 15  1  0  0  0
  2  3  2  0  0  0
  4 52  2  0  0  0
  5 53  2  0  0  0
  8 69  2  0  0  0
 11 70  2  0  0  0
 12 71  2  0  0  0
 15 16  2  0  0  0
 17 60  2  0  0  0
 31 81  2  0  0  0
 32 84  2  0  0  0
 38 85  2  0  0  0
 40 86  2  0  0  0
 42 87  2  0  0  0
 45 66  2  0  0  0
 48 67  2  0  0  0
 49 50  2  0  0  0
 51 88  2  0  0  0
M  END
> <rmsd>
0.814102948

$$$$
MolPort-039-339-110 253667724 LN04688473 MCULE-8090417293 MCULE-9287937155 PubChem-101920412 ZINC000253667724


 69 76  0  0  0  0  0  0  0  0999 V2000
    7.5483    4.6245   55.0100 C   0  0  0  0  0
    5.2945    3.6385   54.8809 C   0  0  0  0  0
    3.9646    3.5442   54.1740 C   0  0  0  0  0
    4.1089    2.5789   53.0144 C   0  0  0  0  0
    2.8535    3.0204   55.0878 C   0  0  0  0  0
    2.5672    3.9888   56.2341 C   0  0  0  0  0
    2.1733    5.3888   55.7509 C   0  0  0  0  0
    0.7196    5.3556   55.2163 C   0  0  0  0  0
    0.5374    5.7808   53.7525 C   0  0  0  0  0
    1.2692    7.0867   53.3685 C   0  0  0  0  0
    1.5296    6.9920   51.8647 C   0  0  0  0  0
    2.6277    7.1598   54.0529 C   0  0  0  0  0
    3.2416    8.3332   54.2838 C   0  0  0  0  0
    2.6522    9.6752   53.9308 C   0  0  0  0  0
    1.2714    9.5996   53.2472 C   0  0  0  0  0
    0.5205   10.9563   53.2203 C   0  0  0  0  0
    0.2537   11.4259   54.6525 C   0  0  0  0  0
    1.4055   11.9853   52.5008 C   0  0  0  0  0
    0.6973   13.3101   52.2164 C   0  0  0  0  0
   -0.6130   13.1008   51.4451 C   0  0  0  0  0
   -0.9992   14.7767   49.9032 C   0  0  0  0  0
   -1.4088   14.4718   47.7070 C   0  0  0  0  0
   -0.0090   14.8741   47.2460 C   0  0  0  0  0
    0.9376   15.0777   45.2261 C   0  0  0  0  0
    0.8748   16.9270   43.7439 C   0  0  0  0  0
    0.5712   18.3185   44.2922 C   0  0  0  0  0
   -0.3655   16.2390   43.1470 C   0  0  0  0  0
   -0.0593   14.7698   42.9014 C   0  0  0  0  0
    0.4383   14.0822   44.1716 C   0  0  0  0  0
    0.6168   15.8063   48.2924 C   0  0  0  0  0
    0.4479   15.2578   49.7081 C   0  0  0  0  0
   -1.5738   12.0798   52.0962 C   0  0  0  0  0
   -2.2167   12.6797   53.3488 C   0  0  0  0  0
   -2.6625   11.7865   51.0564 C   0  0  0  0  0
   -0.7959   10.7743   52.4239 C   0  0  0  0  0
   -1.6567    9.6537   53.0106 C   0  0  0  0  0
   -0.9026    8.3330   52.9089 C   0  0  0  0  0
    0.4280    8.3639   53.6850 C   0  0  0  0  0
    0.1073    8.4335   55.1829 C   0  0  0  0  0
    3.1902    5.9232   54.6946 C   0  0  0  0  0
    3.5420    4.8979   53.6065 C   0  0  0  0  0
    2.1850    6.2728   56.9775 C   0  0  0  0  0
    1.0031    7.1034   58.9812 C   0  0  0  0  0
    1.5603    5.6093   60.7520 C   0  0  0  0  0
    2.6876    4.5848   60.6894 C   0  0  0  0  0
    0.1843    4.9867   60.4550 C   0  0  0  0  0
   -0.8646    6.0879   60.3929 C   0  0  0  0  0
   -0.4544    7.2115   59.4426 C   0  0  0  0  0
    6.2777    4.5034   54.3888 O   0  0  0  0  0
    5.5451    2.8905   55.8684 O   0  0  0  0  0
    0.4893   14.0391   53.3920 O   0  0  0  0  0
   -1.2570   14.3383   51.2217 O   0  0  0  0  0
   -1.3450   13.8049   48.9415 O   0  0  0  0  0
   -0.1199   15.5399   46.0211 O   0  0  0  0  0
    1.6565   16.1579   44.6549 O   0  0  0  0  0
   -0.2494   18.2450   45.4201 O   0  0  0  0  0
   -0.7177   16.8600   41.9461 O   0  0  0  0  0
   -1.1981   14.1112   42.4353 O   0  0  0  0  0
    1.4611   13.1927   43.8464 O   0  0  0  0  0
    1.9715   15.9768   48.0205 O   0  0  0  0  0
    0.7406   16.2633   50.6339 O   0  0  0  0  0
   -3.7251   11.0548   51.5928 O   0  0  0  0  0
    3.1340    7.0832   57.1814 O   0  0  0  0  0
    1.1306    6.1925   57.8924 O   0  0  0  0  0
    1.9061    6.7888   60.0305 O   0  0  0  0  0
    2.8457    4.1027   59.3854 O   0  0  0  0  0
   -0.1523    4.0826   61.4634 O   0  0  0  0  0
   -2.0871    5.5573   59.9807 O   0  0  0  0  0
   -0.6598    8.4428   60.0633 O   0  0  0  0  0
  1 49  1  0  0  0
  2 49  1  0  0  0
  3  2  1  0  0  0
  3  4  1  0  0  0
  3  5  1  0  0  0
  5  6  1  0  0  0
  6  7  1  0  0  0
  7  8  1  0  0  0
  7 42  1  0  0  0
  8  9  1  0  0  0
  9 10  1  0  0  0
 10 11  1  0  0  0
 10 12  1  0  0  0
 14 13  1  0  0  0
 15 14  1  0  0  0
 15 16  1  0  0  0
 16 17  1  0  0  0
 16 18  1  0  0  0
 18 19  1  0  0  0
 19 51  1  0  0  0
 19 20  1  0  0  0
 20 52  1  0  0  0
 20 32  1  0  0  0
 21 52  1  0  0  0
 21 53  1  0  0  0
 22 53  1  0  0  0
 22 23  1  0  0  0
 23 54  1  0  0  0
 23 30  1  0  0  0
 24 54  1  0  0  0
 24 55  1  0  0  0
 25 55  1  0  0  0
 25 26  1  0  0  0
 25 27  1  0  0  0
 26 56  1  0  0  0
 27 57  1  0  0  0
 27 28  1  0  0  0
 28 58  1  0  0  0
 28 29  1  0  0  0
 29 59  1  0  0  0
 29 24  1  0  0  0
 30 60  1  0  0  0
 30 31  1  0  0  0
 31 61  1  0  0  0
 31 21  1  0  0  0
 32 33  1  0  0  0
 32 34  1  0  0  0
 32 35  1  0  0  0
 34 62  1  0  0  0
 35 36  1  0  0  0
 35 16  1  0  0  0
 36 37  1  0  0  0
 37 38  1  0  0  0
 38 39  1  0  0  0
 38 10  1  0  0  0
 38 15  1  0  0  0
 40 12  1  0  0  0
 40 41  1  0  0  0
 40  7  1  0  0  0
 41  3  1  0  0  0
 42 64  1  0  0  0
 43 64  1  0  0  0
 43 65  1  0  0  0
 44 65  1  0  0  0
 44 45  1  0  0  0
 44 46  1  0  0  0
 45 66  1  0  0  0
 46 67  1  0  0  0
 46 47  1  0  0  0
 47 68  1  0  0  0
 47 48  1  0  0  0
 48 69  1  0  0  0
 48 43  1  0  0  0
  2 50  2  0  0  0
 12 13  2  0  0  0
 42 63  2  0  0  0
M  END
> <rmsd>
0.70475632

$$$$
MolPort-047-905-698 PubChem-14431694


 61 64  0  0  0  0  0  0  0  0999 V2000
    5.3514    9.2514   49.3373 C   0  0  0  0  0
    4.5980    8.5431   48.2298 C   0  0  0  0  0
    3.1047    8.8373   48.3120 C   0  0  0  0  0
    2.3938    8.4043   47.0256 C   0  0  0  0  0
    1.8793    6.9714   46.9383 C   0  0  0  0  0
    2.3469    5.8365   47.4769 C   0  0  0  0  0
    3.5120    5.7922   48.3726 C   0  0  0  0  0
    3.7503    4.7689   49.1842 C   0  0  0  0  0
    4.9022    4.7804   50.0930 C   0  0  0  0  0
    4.9733    3.7736   51.1959 C   0  0  0  0  0
    4.8211    4.4748   52.5381 C   0  0  0  0  0
    3.3676    4.4823   53.0011 C   0  0  0  0  0
    3.0581    5.7175   53.8768 C   0  0  0  0  0
    2.9246    7.0199   53.0631 C   0  0  0  0  0
    1.6992    7.0273   52.1354 C   0  0  0  0  0
    1.2790    8.4145   51.6441 C   0  0  0  0  0
    2.1792    8.9955   50.6003 C   0  0  0  0  0
    4.2189    7.4346   52.3784 C   0  0  0  0  0
    2.2346    5.7301   55.9617 C   0  0  0  0  0
    1.2092    5.0408   56.8651 C   0  0  0  0  0
    1.5441    5.2593   58.3511 C   0  0  0  0  0
    2.0669    6.6921   58.6435 C   0  0  0  0  0
    2.8976    7.3093   57.5010 C   0  0  0  0  0
    4.3829    6.9376   57.5005 C   0  0  0  0  0
    3.7173    4.2272   58.7967 C   0  0  0  0  0
    1.9700    4.0643   60.3845 C   0  0  0  0  0
    3.0091    3.1402   53.6580 C   0  0  0  0  0
    3.6359    2.9212   55.0382 C   0  0  0  0  0
    5.5974    3.6872   56.0536 C   0  0  0  0  0
    7.1307    3.6697   56.1051 C   0  0  0  0  0
    7.7432    2.7250   55.0646 C   0  0  0  0  0
    7.0353    1.3653   55.0482 C   0  0  0  0  0
    5.5091    1.4998   55.1669 C   0  0  0  0  0
    7.3903    0.6334   53.7665 C   0  0  0  0  0
    7.6551    5.0745   55.8812 C   0  0  0  0  0
    6.3100    3.0531   51.1548 C   0  0  0  0  0
    1.6208    4.5719   47.1405 C   0  0  0  0  0
    1.2520    9.3802   46.7513 C   0  0  0  0  0
    0.4041   10.3361   44.9330 C   0  0  0  0  0
    0.5821   10.2487   43.4112 C   0  0  0  0  0
   -0.0491   11.4769   42.7353 C   0  0  0  0  0
   -0.2757   12.6623   43.6859 C   0  0  0  0  0
   -0.9668   12.1971   44.9840 C   0  0  0  0  0
   -0.5288   13.0229   46.1795 C   0  0  0  0  0
    1.8862   12.2550   41.7932 C   0  0  0  0  0
    1.0145    8.4004   42.2666 C   0  0  0  0  0
    5.7988    5.6623   49.9804 O   0  0  0  0  0
    2.5945   10.1794   50.7370 O   0  0  0  0  0
    2.5052    8.2541   49.4689 O   0  0  0  0  0
    1.8219    6.1215   51.0806 O   0  0  0  0  0
    1.8827    5.5357   54.6208 O   0  0  0  0  0
    2.2821    7.1173   56.2428 O   0  0  0  0  0
    2.6984    6.8155   59.8863 O   0  0  0  0  0
    1.1343    3.6814   56.5653 O   0  0  0  0  0
    0.6370    9.0939   45.5275 O   0  0  0  0  0
   -0.8892   10.8043   45.2563 O   0  0  0  0  0
   -1.0608   13.6242   43.0533 O   0  0  0  0  0
    0.5737   11.8321   41.5182 O   0  0  0  0  0
   -0.0170    9.0886   42.9113 O   0  0  0  0  0
    2.2694    4.1223   58.9583 N   0  0  0  0  0
    5.0846    2.8806   54.9503 N   0  0  0  0  0
  1  2  1  0  0  0
  3  2  1  0  0  0
  3  4  1  0  0  0
  3 49  1  0  0  0
  4  5  1  0  0  0
  4 38  1  0  0  0
  6  7  1  0  0  0
  8  9  1  0  0  0
 10  9  1  0  0  0
 10 11  1  0  0  0
 10 36  1  0  0  0
 11 12  1  0  0  0
 12 13  1  0  0  0
 12 27  1  0  0  0
 13 14  1  0  0  0
 13 51  1  0  0  0
 14 15  1  0  0  0
 14 18  1  0  0  0
 15 16  1  0  0  0
 15 50  1  0  0  0
 16 17  1  0  0  0
 17 49  1  0  0  0
 19 51  1  0  0  0
 19 20  1  0  0  0
 19 52  1  0  0  0
 20 21  1  0  0  0
 20 54  1  0  0  0
 21 22  1  0  0  0
 21 60  1  0  0  0
 22 23  1  0  0  0
 22 53  1  0  0  0
 23 52  1  0  0  0
 23 24  1  0  0  0
 25 60  1  0  0  0
 26 60  1  0  0  0
 27 28  1  0  0  0
 28 61  1  0  0  0
 29 61  1  0  0  0
 29 30  1  0  0  0
 30 31  1  0  0  0
 30 35  1  0  0  0
 31 32  1  0  0  0
 32 33  1  0  0  0
 32 34  1  0  0  0
 33 61  1  0  0  0
 37  6  1  0  0  0
 38 55  1  0  0  0
 39 55  1  0  0  0
 39 40  1  0  0  0
 39 56  1  0  0  0
 40 41  1  0  0  0
 40 59  1  0  0  0
 41 42  1  0  0  0
 41 58  1  0  0  0
 42 43  1  0  0  0
 42 57  1  0  0  0
 43 56  1  0  0  0
 43 44  1  0  0  0
 45 58  1  0  0  0
 46 59  1  0  0  0
  5  6  2  0  0  0
  7  8  2  0  0  0
  9 47  2  0  0  0
 17 48  2  0  0  0
M  END
> <rmsd>
0.655240417

$$$$
MolPort-051-435-081


 46 49  0  0  0  0  0  0  0  0999 V2000
    7.9091    3.1793   56.9787 C   0  0  0  0  0
    8.0346    3.9281   55.6641 C   0  0  0  0  0
    5.8347    5.0588   55.5878 C   0  0  0  0  0
    5.0627    6.3323   55.5800 C   0  0  0  0  0
    4.9176    6.9128   56.9834 C   0  0  0  0  0
    2.6147    7.1301   57.9598 C   0  0  0  0  0
    2.0633    8.0833   56.9685 C   0  0  0  0  0
    1.1285    9.0659   57.3885 C   0  0  0  0  0
    0.5576    9.9678   56.4712 C   0  0  0  0  0
    0.9466    9.8503   55.1388 C   0  0  0  0  0
   -0.4049   11.6642   54.0561 C   0  0  0  0  0
    1.2255   10.0276   53.0345 C   0  0  0  0  0
    1.0699   10.4849   51.6237 C   0  0  0  0  0
   -0.1955    9.7575   49.5524 C   0  0  0  0  0
    0.0755   10.9636   48.8898 C   0  0  0  0  0
   -0.4028   11.1763   47.5947 C   0  0  0  0  0
   -1.1576   10.1888   46.9445 C   0  0  0  0  0
   -1.7042   10.3600   45.5802 C   0  0  0  0  0
   -0.8382   13.7250   44.3982 C   0  0  0  0  0
   -0.0895   16.0531   44.0749 C   0  0  0  0  0
   -1.0156   17.0965   44.6935 C   0  0  0  0  0
   -0.7292   18.4845   44.1358 C   0  0  0  0  0
    0.5608   19.0310   44.7184 C   0  0  0  0  0
   -2.4894   16.7266   44.5280 C   0  0  0  0  0
   -2.9189   16.6768   43.0686 C   0  0  0  0  0
   -1.4175    8.9844   47.6072 C   0  0  0  0  0
   -0.9406    8.7693   48.9032 C   0  0  0  0  0
    1.8382    8.9065   54.7205 C   0  0  0  0  0
    2.4155    7.9983   55.6039 C   0  0  0  0  0
    3.9174    5.0396   58.3317 C   0  0  0  0  0
    5.1745    4.5834   58.7550 C   0  0  0  0  0
    5.2813    3.3386   59.3787 C   0  0  0  0  0
    4.1405    2.5613   59.5793 C   0  0  0  0  0
    2.9027    3.0473   59.1526 C   0  0  0  0  0
    7.2280    5.1011   55.6784 O   0  0  0  0  0
    5.2229    3.9587   55.5081 O   0  0  0  0  0
    2.0436    7.0251   59.0810 O   0  0  0  0  0
   -1.4078   13.7173   43.2727 O   0  0  0  0  0
   -0.1319   14.8486   44.8301 O   0  0  0  0  0
    3.7768    6.3197   57.6853 N   0  0  0  0  0
    0.5492   10.5659   54.0796 N   0  0  0  0  0
    0.2636    9.5240   50.8859 N   0  0  0  0  0
   -1.5881   11.4219   44.8386 N   0  0  0  0  0
   -0.9075   12.5782   45.2427 N   0  0  0  0  0
    2.0333    8.9933   53.3899 N   0  0  0  0  0
    2.8180    4.2619   58.5459 N   0  0  0  0  0
  1  2  1  0  0  0
  2 35  1  0  0  0
  3 35  1  0  0  0
  4  3  1  0  0  0
  4  5  1  0  0  0
  5 40  1  0  0  0
  6  7  1  0  0  0
  8  9  1  0  0  0
 10 41  1  0  0  0
 11 41  1  0  0  0
 13 12  1  0  0  0
 13 42  1  0  0  0
 15 16  1  0  0  0
 17 18  1  0  0  0
 17 26  1  0  0  0
 19 39  1  0  0  0
 20 39  1  0  0  0
 20 21  1  0  0  0
 21 22  1  0  0  0
 21 24  1  0  0  0
 22 23  1  0  0  0
 24 25  1  0  0  0
 27 14  1  0  0  0
 28 45  1  0  0  0
 28 10  1  0  0  0
 29  7  1  0  0  0
 30 46  1  0  0  0
 31 32  1  0  0  0
 33 34  1  0  0  0
 40  6  1  0  0  0
 40 30  1  0  0  0
 41 12  1  0  0  0
 42 14  1  0  0  0
 44 43  1  0  0  0
 44 19  1  0  0  0
  3 36  2  0  0  0
  6 37  2  0  0  0
  7  8  2  0  0  0
  9 10  2  0  0  0
 12 45  2  0  0  0
 14 15  2  0  0  0
 16 17  2  0  0  0
 18 43  2  0  0  0
 19 38  2  0  0  0
 26 27  2  0  0  0
 28 29  2  0  0  0
 30 31  2  0  0  0
 32 33  2  0  0  0
 34 46  2  0  0  0
M  END
> <rmsd>
0.783302069

$$$$
MolPort-019-937-139 MCULE-1910939970 PubChem-51136425


 71 76  0  0  0  0  0  0  0  0999 V2000
    2.2025   10.3768   56.9081 C   0  0  0  0  0
    3.3591    9.4639   56.6506 C   0  0  0  0  0
    3.2487    8.2988   55.9951 C   0  0  0  0  0
    4.4900    7.4582   55.7910 C   0  0  0  0  0
    4.2385    6.0876   55.1950 C   0  0  0  0  0
    3.0784    5.8006   54.5948 C   0  0  0  0  0
    1.9059    7.8072   55.4890 C   0  0  0  0  0
    1.4140    6.4235   57.2479 C   0  0  0  0  0
    1.3139    6.6958   58.7553 C   0  0  0  0  0
    0.7561    5.4930   59.5363 C   0  0  0  0  0
    1.1538    4.1374   58.9364 C   0  0  0  0  0
    1.3421    4.2029   57.4131 C   0  0  0  0  0
    0.8440    2.9179   56.7738 C   0  0  0  0  0
    5.3095    5.0736   55.2215 C   0  0  0  0  0
    7.5608    4.4113   55.9640 C   0  0  0  0  0
    5.6081    8.2130   55.0513 C   0  0  0  0  0
    5.3135    8.5515   53.6182 C   0  0  0  0  0
    3.7125    8.4791   51.6888 C   0  0  0  0  0
    3.8308    9.9495   51.2652 C   0  0  0  0  0
    5.2745    9.6244   49.5111 C   0  0  0  0  0
    5.6766    8.2589   50.1069 C   0  0  0  0  0
    4.4976    7.5337   50.7706 C   0  0  0  0  0
    6.8135   10.9756   48.6452 C   0  0  0  0  0
    8.3355   10.8564   48.7716 C   0  0  0  0  0
    8.9966   11.5337   47.5612 C   0  0  0  0  0
    7.2743   12.9246   47.1081 C   0  0  0  0  0
    6.4061   12.4104   48.2664 C   0  0  0  0  0
    4.4099   11.8302   46.8817 C   0  0  0  0  0
    3.1939   12.3618   46.2661 C   0  0  0  0  0
    2.6911   13.5392   46.6347 C   0  0  0  0  0
    1.5011   14.1298   46.0052 C   0  0  0  0  0
    0.7994   13.4645   44.9875 C   0  0  0  0  0
   -0.2976   14.0777   44.3723 C   0  0  0  0  0
   -0.6952   15.3653   44.7675 C   0  0  0  0  0
    0.0021   16.0293   45.7793 C   0  0  0  0  0
    1.0976   15.4141   46.3949 C   0  0  0  0  0
    6.8928   14.3564   46.7575 C   0  0  0  0  0
   10.9833   12.0903   48.5949 C   0  0  0  0  0
   11.4075   13.4846   48.1419 C   0  0  0  0  0
   12.3799   13.4331   47.0122 C   0  0  0  0  0
   11.9991   13.9210   45.7557 C   0  0  0  0  0
   12.9078   13.9118   44.6934 C   0  0  0  0  0
   14.2068   13.4181   44.8865 C   0  0  0  0  0
   14.5919   12.9366   46.1428 C   0  0  0  0  0
   13.6798   12.9477   47.2067 C   0  0  0  0  0
    2.5992   10.7140   51.7054 C   0  0  0  0  0
    2.0093    6.7013   54.5829 O   0  0  0  0  0
    0.9832    7.5488   56.5297 O   0  0  0  0  0
    0.6546    5.3013   56.8769 O   0  0  0  0  0
    1.1893    2.8987   55.4249 O   0  0  0  0  0
    2.3322    3.6880   59.5350 O   0  0  0  0  0
   -0.6321    5.5808   59.5927 O   0  0  0  0  0
    2.5752    7.0357   59.2460 O   0  0  0  0  0
    5.1613    3.9724   54.6181 O   0  0  0  0  0
    6.4862    5.3359   55.9274 O   0  0  0  0  0
    6.2252    9.0706   52.9245 O   0  0  0  0  0
    4.0551    8.2879   53.0619 O   0  0  0  0  0
    3.9683   10.0425   49.8669 O   0  0  0  0  0
    3.6361    7.0191   49.7988 O   0  0  0  0  0
    6.2716    7.4611   49.1309 O   0  0  0  0  0
    6.2129   10.6046   49.8513 O   0  0  0  0  0
    8.6277   12.8901   47.4792 O   0  0  0  0  0
    5.0156   12.5097   47.9470 O   0  0  0  0  0
    4.9162   10.7706   46.4204 O   0  0  0  0  0
   -1.7784   15.9892   44.1570 O   0  0  0  0  0
   -0.9829   13.4106   43.3641 O   0  0  0  0  0
    7.5467   14.7560   45.5896 O   0  0  0  0  0
   10.4035   11.3711   47.5314 O   0  0  0  0  0
   15.1163   13.4101   43.8362 O   0  0  0  0  0
   12.5205   14.4065   43.4531 O   0  0  0  0  0
    8.7013    9.5096   48.8194 O   0  0  0  0  0
  1  2  1  0  0  0
  4  3  1  0  0  0
  4  5  1  0  0  0
  4 16  1  0  0  0
  5 14  1  0  0  0
  6 47  1  0  0  0
  7  3  1  0  0  0
  7 47  1  0  0  0
  7 48  1  0  0  0
  8 48  1  0  0  0
  8  9  1  0  0  0
  8 49  1  0  0  0
  9 10  1  0  0  0
  9 53  1  0  0  0
 10 11  1  0  0  0
 10 52  1  0  0  0
 11 12  1  0  0  0
 11 51  1  0  0  0
 12 49  1  0  0  0
 12 13  1  0  0  0
 13 50  1  0  0  0
 14 55  1  0  0  0
 15 55  1  0  0  0
 16 17  1  0  0  0
 17 57  1  0  0  0
 18 57  1  0  0  0
 18 19  1  0  0  0
 19 58  1  0  0  0
 19 46  1  0  0  0
 20 58  1  0  0  0
 20 21  1  0  0  0
 20 61  1  0  0  0
 21 22  1  0  0  0
 21 60  1  0  0  0
 22 59  1  0  0  0
 22 18  1  0  0  0
 23 61  1  0  0  0
 23 24  1  0  0  0
 24 25  1  0  0  0
 24 71  1  0  0  0
 25 62  1  0  0  0
 25 68  1  0  0  0
 26 62  1  0  0  0
 26 27  1  0  0  0
 26 37  1  0  0  0
 27 63  1  0  0  0
 27 23  1  0  0  0
 28 63  1  0  0  0
 28 29  1  0  0  0
 30 31  1  0  0  0
 32 33  1  0  0  0
 33 66  1  0  0  0
 34 35  1  0  0  0
 34 65  1  0  0  0
 36 31  1  0  0  0
 37 67  1  0  0  0
 38 68  1  0  0  0
 38 39  1  0  0  0
 39 40  1  0  0  0
 41 42  1  0  0  0
 42 70  1  0  0  0
 43 44  1  0  0  0
 43 69  1  0  0  0
 45 40  1  0  0  0
  2  3  2  0  0  0
  5  6  2  0  0  0
 14 54  2  0  0  0
 17 56  2  0  0  0
 28 64  2  0  0  0
 29 30  2  0  0  0
 31 32  2  0  0  0
 33 34  2  0  0  0
 35 36  2  0  0  0
 40 41  2  0  0  0
 42 43  2  0  0  0
 44 45  2  0  0  0
M  END
> <rmsd>
0.678007305

$$$$
MolPort-019-937-139 MCULE-1910939970 PubChem-51136425


 71 76  0  0  0  0  0  0  0  0999 V2000
    2.1556   10.0631   56.2831 C   0  0  0  0  0
    3.3508    9.1687   56.1881 C   0  0  0  0  0
    3.3075    7.9303   55.6744 C   0  0  0  0  0
    4.5825    7.1171   55.6272 C   0  0  0  0  0
    4.4020    5.6769   55.1913 C   0  0  0  0  0
    3.2808    5.2781   54.5810 C   0  0  0  0  0
    2.0059    7.3331   55.1743 C   0  0  0  0  0
    1.4750    6.1526   57.0651 C   0  0  0  0  0
    1.2956    6.5995   58.5228 C   0  0  0  0  0
    0.7392    5.4792   59.4190 C   0  0  0  0  0
    1.2065    4.0770   59.0053 C   0  0  0  0  0
    1.4642    3.9667   57.4948 C   0  0  0  0  0
    1.0368    2.5971   56.9951 C   0  0  0  0  0
    5.5014    4.7130   55.3865 C   0  0  0  0  0
    7.7347    4.2268   56.2997 C   0  0  0  0  0
    5.7103    7.8183   54.8502 C   0  0  0  0  0
    5.4730    7.9720   53.3754 C   0  0  0  0  0
    3.9676    7.6110   51.4019 C   0  0  0  0  0
    4.0601    9.0236   50.8088 C   0  0  0  0  0
    5.5941    8.5438   49.1707 C   0  0  0  0  0
    6.0098    7.2750   49.9442 C   0  0  0  0  0
    4.8240    6.5919   50.6396 C   0  0  0  0  0
    7.1295    9.8370   48.2144 C   0  0  0  0  0
    8.6468    9.7893   48.4196 C   0  0  0  0  0
    9.3428   10.3406   47.1656 C   0  0  0  0  0
    7.6015   11.6036   46.4739 C   0  0  0  0  0
    6.6960   11.2004   47.6474 C   0  0  0  0  0
    4.7862   10.3864   46.2588 C   0  0  0  0  0
    3.5846   10.7959   45.5316 C   0  0  0  0  0
    3.0287   11.9898   45.7329 C   0  0  0  0  0
    1.8520   12.4571   44.9860 C   0  0  0  0  0
    1.2199   11.6498   44.0272 C   0  0  0  0  0
    0.1346   12.1445   43.2957 C   0  0  0  0  0
   -0.3209   13.4549   43.5145 C   0  0  0  0  0
    0.3071   14.2600   44.4674 C   0  0  0  0  0
    1.3909   13.7632   45.1995 C   0  0  0  0  0
    7.1927   12.9684   45.9363 C   0  0  0  0  0
   11.2605   11.0889   48.2088 C   0  0  0  0  0
   11.6621   12.4336   47.6089 C   0  0  0  0  0
   12.6877   12.2828   46.5365 C   0  0  0  0  0
   12.3515   12.6027   45.2150 C   0  0  0  0  0
   13.3090   12.4996   44.2017 C   0  0  0  0  0
   14.6122   12.0802   44.5088 C   0  0  0  0  0
   14.9525   11.7668   45.8295 C   0  0  0  0  0
   13.9915   11.8718   46.8441 C   0  0  0  0  0
    2.7860    9.7898   51.0998 C   0  0  0  0  0
    2.1860    6.1313   54.4142 O   0  0  0  0  0
    1.0437    7.1676   56.1980 O   0  0  0  0  0
    0.7690    4.9673   56.8005 O   0  0  0  0  0
    1.4456    2.4294   55.6745 O   0  0  0  0  0
    2.3689    3.7457   59.7040 O   0  0  0  0  0
   -0.6521    5.5224   59.4046 O   0  0  0  0  0
    2.5213    7.0414   59.0224 O   0  0  0  0  0
    5.4160    3.5429   54.9150 O   0  0  0  0  0
    6.6349    5.1005   56.1053 O   0  0  0  0  0
    6.3999    8.4373   52.6637 O   0  0  0  0  0
    4.2510    7.5981   52.8015 O   0  0  0  0  0
    4.2602    8.9536   49.4167 O   0  0  0  0  0
    4.0255    5.9337   49.7011 O   0  0  0  0  0
    6.6746    6.3884   49.0985 O   0  0  0  0  0
    6.4845    9.5912   49.4297 O   0  0  0  0  0
    8.9363   11.6631   46.9042 O   0  0  0  0  0
    5.3198   11.2100   47.2590 O   0  0  0  0  0
    5.3462    9.2983   45.9514 O   0  0  0  0  0
   -1.3930   13.9613   42.7869 O   0  0  0  0  0
   -0.4815   11.3371   42.3471 O   0  0  0  0  0
    7.8881   13.2490   44.7578 O   0  0  0  0  0
   10.7539   10.2270   47.2162 O   0  0  0  0  0
   15.5699   11.9798   43.5072 O   0  0  0  0  0
   12.9653   12.8280   42.8951 O   0  0  0  0  0
    9.0515    8.4721   48.6459 O   0  0  0  0  0
  1  2  1  0  0  0
  4  3  1  0  0  0
  4  5  1  0  0  0
  4 16  1  0  0  0
  5 14  1  0  0  0
  6 47  1  0  0  0
  7  3  1  0  0  0
  7 47  1  0  0  0
  7 48  1  0  0  0
  8 48  1  0  0  0
  8  9  1  0  0  0
  8 49  1  0  0  0
  9 10  1  0  0  0
  9 53  1  0  0  0
 10 11  1  0  0  0
 10 52  1  0  0  0
 11 12  1  0  0  0
 11 51  1  0  0  0
 12 49  1  0  0  0
 12 13  1  0  0  0
 13 50  1  0  0  0
 14 55  1  0  0  0
 15 55  1  0  0  0
 16 17  1  0  0  0
 17 57  1  0  0  0
 18 57  1  0  0  0
 18 19  1  0  0  0
 19 58  1  0  0  0
 19 46  1  0  0  0
 20 58  1  0  0  0
 20 21  1  0  0  0
 20 61  1  0  0  0
 21 22  1  0  0  0
 21 60  1  0  0  0
 22 59  1  0  0  0
 22 18  1  0  0  0
 23 61  1  0  0  0
 23 24  1  0  0  0
 24 25  1  0  0  0
 24 71  1  0  0  0
 25 62  1  0  0  0
 25 68  1  0  0  0
 26 62  1  0  0  0
 26 27  1  0  0  0
 26 37  1  0  0  0
 27 63  1  0  0  0
 27 23  1  0  0  0
 28 63  1  0  0  0
 28 29  1  0  0  0
 30 31  1  0  0  0
 32 33  1  0  0  0
 33 66  1  0  0  0
 34 35  1  0  0  0
 34 65  1  0  0  0
 36 31  1  0  0  0
 37 67  1  0  0  0
 38 68  1  0  0  0
 38 39  1  0  0  0
 39 40  1  0  0  0
 41 42  1  0  0  0
 42 70  1  0  0  0
 43 44  1  0  0  0
 43 69  1  0  0  0
 45 40  1  0  0  0
  2  3  2  0  0  0
  5  6  2  0  0  0
 14 54  2  0  0  0
 17 56  2  0  0  0
 28 64  2  0  0  0
 29 30  2  0  0  0
 31 32  2  0  0  0
 33 34  2  0  0  0
 35 36  2  0  0  0
 40 41  2  0  0  0
 42 43  2  0  0  0
 44 45  2  0  0  0
M  END
> <rmsd>
0.577941298

$$$$
MolPort-047-940-466 MolPort-049-227-134 PubChem-71464395


127127  0  0  0  0  0  0  0  0999 V2000
   -4.8649   17.2686   46.1480 C   0  0  0  0  0
   -4.6412   15.7709   46.2073 C   0  0  0  0  0
   -4.0856   15.4088   47.5750 C   0  0  0  0  0
   -5.9659   15.0531   45.9855 C   0  0  0  0  0
   -5.8198   13.7556   45.1819 C   0  0  0  0  0
   -5.4607   13.9755   43.7366 C   0  0  0  0  0
   -4.6987   15.5731   41.8886 C   0  0  0  0  0
   -3.2927   14.9960   41.7193 C   0  0  0  0  0
   -2.5069   15.7642   40.6684 C   0  0  0  0  0
   -1.2691   14.9791   40.2902 C   0  0  0  0  0
   -2.0901   17.1223   41.2086 C   0  0  0  0  0
   -5.6668   15.1231   40.8241 C   0  0  0  0  0
   -6.0176   14.4558   38.3647 C   0  0  0  0  0
   -7.0331   13.3447   38.6060 C   0  0  0  0  0
   -6.6494   15.7332   37.9004 C   0  0  0  0  0
   -8.3756   17.5722   38.3931 C   0  0  0  0  0
   -7.3292   18.6049   38.8074 C   0  0  0  0  0
   -6.9243   18.4309   40.2638 C   0  0  0  0  0
   -5.6548   19.2150   40.5269 C   0  0  0  0  0
   -8.0173   18.9376   41.1823 C   0  0  0  0  0
   -8.9030   17.8662   37.0185 C   0  0  0  0  0
   -9.8999   19.5859   35.4574 C   0  0  0  0  0
  -11.0393   20.6104   35.4885 C   0  0  0  0  0
  -10.7278   21.8449   36.2748 C   0  0  0  0  0
   -8.6624   20.1140   34.8033 C   0  0  0  0  0
   -7.0471   19.9803   32.8366 C   0  0  0  0  0
   -6.8760   21.4989   32.6536 C   0  0  0  0  0
   -7.9412   22.1724   31.8359 C   0  0  0  0  0
   -6.9031   19.2166   31.5476 C   0  0  0  0  0
   -7.6665   17.2328   30.1054 C   0  0  0  0  0
   -8.7014   16.1084   30.2408 C   0  0  0  0  0
   -8.7397   15.2036   29.0208 C   0  0  0  0  0
   -7.9396   18.0930   28.9028 C   0  0  0  0  0
   -9.2546   19.9803   27.8275 C   0  0  0  0  0
  -10.5207   20.7713   28.1376 C   0  0  0  0  0
  -11.0760   21.4594   26.8920 C   0  0  0  0  0
  -11.8587   20.4878   26.0147 C   0  0  0  0  0
  -10.0687   19.9880   24.2799 C   0  0  0  0  0
   -8.1123   20.9011   27.5356 C   0  0  0  0  0
   -4.9253   11.4408   45.6529 C   0  0  0  0  0
   -3.7052   10.5944   45.8273 C   0  0  0  0  0
   -2.4309   11.2731   45.3337 C   0  0  0  0  0
   -2.4128   11.2838   43.8137 C   0  0  0  0  0
   -1.1724   11.9398   43.3188 C   0  0  0  0  0
   -3.2898   10.8841   48.3498 C   0  0  0  0  0
   -2.9436   10.1880   49.6266 C   0  0  0  0  0
   -4.0716   10.3252   50.6437 C   0  0  0  0  0
   -3.7864    9.5043   51.8591 C   0  0  0  0  0
   -3.7770    8.1033   51.7903 C   0  0  0  0  0
   -3.4747    7.3482   52.9271 C   0  0  0  0  0
   -3.1777    7.9858   54.1333 C   0  0  0  0  0
   -3.1946    9.3836   54.2068 C   0  0  0  0  0
   -3.4940   10.1403   53.0696 C   0  0  0  0  0
   -0.4243   10.5541   49.5539 C   0  0  0  0  0
    0.8385   10.7011   50.3463 C   0  0  0  0  0
    0.6251   11.4838   51.6397 C   0  0  0  0  0
    0.5145   12.9728   51.3642 C   0  0  0  0  0
    0.3129   13.7089   52.6460 C   0  0  0  0  0
    2.6702    9.1396   51.1470 C   0  0  0  0  0
    3.0130    7.7840   51.6845 C   0  0  0  0  0
    4.4614    7.3499   51.4233 C   0  0  0  0  0
    5.4693    8.1079   52.2272 C   0  0  0  0  0
    1.3302    7.3772   53.5201 C   0  0  0  0  0
    0.9340    7.5323   54.9502 C   0  0  0  0  0
    0.8889    9.0037   55.3445 C   0  0  0  0  0
   -0.3295    9.2960   56.2012 C   0  0  0  0  0
   -0.0924    8.8828   57.6367 C   0  0  0  0  0
   -1.3919    8.8723   59.8101 C   0  0  0  0  0
    3.1523    7.0446   56.1612 C   0  0  0  0  0
    3.9890    6.0106   56.8485 C   0  0  0  0  0
    4.0549    6.2513   58.3473 C   0  0  0  0  0
    2.7907    5.8126   59.0073 C   0  0  0  0  0
    5.7790    5.0001   55.3884 C   0  0  0  0  0
    7.1531    5.0914   54.8103 C   0  0  0  0  0
    8.0695    4.0817   55.4711 C   0  0  0  0  0
   -5.3924   12.9806   42.9663 O   0  0  0  0  0
   -6.9063   15.1861   41.0457 O   0  0  0  0  0
   -6.0771   16.4085   37.0033 O   0  0  0  0  0
   -8.7298   17.0534   36.0701 O   0  0  0  0  0
  -10.5255   21.7815   37.5143 O   0  0  0  0  0
  -10.6830   23.0732   35.6313 O   0  0  0  0  0
   -7.9211   20.9330   35.4140 O   0  0  0  0  0
   -8.8324   21.5095   31.2462 O   0  0  0  0  0
   -6.1119   19.6362   30.6503 O   0  0  0  0  0
   -9.9773   16.6382   30.4780 O   0  0  0  0  0
   -7.2673   17.9116   27.8523 O   0  0  0  0  0
   -7.5385   20.8449   26.4204 O   0  0  0  0  0
   -7.6896   21.8281   28.4840 O   0  0  0  0  0
   -6.0177   10.8942   45.3421 O   0  0  0  0  0
   -0.3502   11.2812   42.6372 O   0  0  0  0  0
   -0.9346   13.2814   43.5862 O   0  0  0  0  0
   -3.3235   12.1441   48.2922 O   0  0  0  0  0
   -2.8692    7.2350   55.2593 O   0  0  0  0  0
   -0.3530   10.2208   48.3408 O   0  0  0  0  0
    1.1924   13.6662   53.5507 O   0  0  0  0  0
    3.5113   10.0760   51.1545 O   0  0  0  0  0
    5.5613    7.9269   53.4726 O   0  0  0  0  0
    6.3353    8.9872   51.5960 O   0  0  0  0  0
    0.4620    7.0080   52.6833 O   0  0  0  0  0
    3.6357    8.1777   55.8987 O   0  0  0  0  0
    2.0720    6.6543   59.6020 O   0  0  0  0  0
    2.4091    4.4773   58.9699 O   0  0  0  0  0
    5.0315    4.0239   55.1025 O   0  0  0  0  0
   -5.2003   15.2913   43.2309 N   0  0  0  0  0
   -5.1852   14.6909   39.5429 N   0  0  0  0  0
   -7.8526   16.2106   38.5176 N   0  0  0  0  0
   -9.5998   19.0920   36.7940 N   0  0  0  0  0
   -8.3200   19.6679   33.4860 N   0  0  0  0  0
   -7.9215   23.5876   31.7109 N   0  0  0  0  0
   -7.6754   18.0248   31.3316 N   0  0  0  0  0
   -8.9406   19.1154   28.9570 N   0  0  0  0  0
  -10.9613   19.5759   25.3169 N   0  0  0  0  0
  -10.0841   21.2011   23.8371 N   0  0  0  0  0
   -9.1864   19.0380   23.6975 N   0  0  0  0  0
   -4.8519   12.8620   45.8028 N   0  0  0  0  0
   -3.5618   10.0912   47.1906 N   0  0  0  0  0
   -1.6985   10.6943   50.1927 N   0  0  0  0  0
   -0.8656   14.4767   52.8414 N   0  0  0  0  0
    1.3447    9.3732   50.6675 N   0  0  0  0  0
    2.6583    7.6888   53.0959 N   0  0  0  0  0
   -1.3000    9.1323   58.4087 N   0  0  0  0  0
   -0.3737    8.4293   60.4688 N   0  0  0  0  0
   -2.6246    9.0952   60.4849 N   0  0  0  0  0
    1.7905    6.7398   55.8344 N   0  0  0  0  0
    5.3339    6.0104   56.2924 N   0  0  0  0  0
    7.1163    4.8574   53.3766 N   0  0  0  0  0
   -7.7052   12.7468   37.0274 S   0  0  0  0  0
  1  2  1  0  0  0
  2  3  1  0  0  0
  2  4  1  0  0  0
  4  5  1  0  0  0
  5  6  1  0  0  0
  5115  1  0  0  0
  6104  1  0  0  0
  7104  1  0  0  0
  7  8  1  0  0  0
  7 12  1  0  0  0
  8  9  1  0  0  0
  9 10  1  0  0  0
  9 11  1  0  0  0
 12105  1  0  0  0
 13105  1  0  0  0
 13 14  1  0  0  0
 13 15  1  0  0  0
 14127  1  0  0  0
 15106  1  0  0  0
 16106  1  0  0  0
 16 17  1  0  0  0
 16 21  1  0  0  0
 17 18  1  0  0  0
 18 19  1  0  0  0
 18 20  1  0  0  0
 21107  1  0  0  0
 22107  1  0  0  0
 22 23  1  0  0  0
 22 25  1  0  0  0
 23 24  1  0  0  0
 24 81  1  0  0  0
 25108  1  0  0  0
 26108  1  0  0  0
 26 27  1  0  0  0
 26 29  1  0  0  0
 27 28  1  0  0  0
 28109  1  0  0  0
 29110  1  0  0  0
 30110  1  0  0  0
 30 31  1  0  0  0
 30 33  1  0  0  0
 31 32  1  0  0  0
 31 85  1  0  0  0
 33111  1  0  0  0
 34111  1  0  0  0
 34 35  1  0  0  0
 34 39  1  0  0  0
 35 36  1  0  0  0
 36 37  1  0  0  0
 37112  1  0  0  0
 38114  1  0  0  0
 39 88  1  0  0  0
 41 40  1  0  0  0
 41 42  1  0  0  0
 41116  1  0  0  0
 42 43  1  0  0  0
 43 44  1  0  0  0
 44 91  1  0  0  0
 46 45  1  0  0  0
 46 47  1  0  0  0
 46117  1  0  0  0
 47 48  1  0  0  0
 49 50  1  0  0  0
 51 52  1  0  0  0
 51 93  1  0  0  0
 53 48  1  0  0  0
 55 54  1  0  0  0
 55 56  1  0  0  0
 55119  1  0  0  0
 56 57  1  0  0  0
 57 58  1  0  0  0
 58118  1  0  0  0
 60 59  1  0  0  0
 60 61  1  0  0  0
 60120  1  0  0  0
 61 62  1  0  0  0
 62 98  1  0  0  0
 64 63  1  0  0  0
 64 65  1  0  0  0
 64124  1  0  0  0
 65 66  1  0  0  0
 66 67  1  0  0  0
 67121  1  0  0  0
 68123  1  0  0  0
 70 69  1  0  0  0
 70 71  1  0  0  0
 70125  1  0  0  0
 71 72  1  0  0  0
 72102  1  0  0  0
 74 73  1  0  0  0
 74 75  1  0  0  0
 74126  1  0  0  0
112 38  1  0  0  0
115 40  1  0  0  0
116 45  1  0  0  0
117 54  1  0  0  0
119 59  1  0  0  0
120 63  1  0  0  0
121 68  1  0  0  0
124 69  1  0  0  0
125 73  1  0  0  0
  6 76  2  0  0  0
 12 77  2  0  0  0
 15 78  2  0  0  0
 21 79  2  0  0  0
 24 80  2  0  0  0
 25 82  2  0  0  0
 28 83  2  0  0  0
 29 84  2  0  0  0
 33 86  2  0  0  0
 38113  2  0  0  0
 39 87  2  0  0  0
 40 89  2  0  0  0
 44 90  2  0  0  0
 45 92  2  0  0  0
 48 49  2  0  0  0
 50 51  2  0  0  0
 52 53  2  0  0  0
 54 94  2  0  0  0
 58 95  2  0  0  0
 59 96  2  0  0  0
 62 97  2  0  0  0
 63 99  2  0  0  0
 68122  2  0  0  0
 69100  2  0  0  0
 72101  2  0  0  0
 73103  2  0  0  0
M  END
> <rmsd>
0.704373658

$$$$
MolPort-006-535-775 ChemDiv-V007-8750 MCULE-4901939213 PubChem-46001538 ZINC000103100927


 43 48  0  0  0  0  0  0  0  0999 V2000
    0.0788   12.7264   42.4432 C   0  0  0  0  0
   -1.0040   13.3216   44.5876 C   0  0  0  0  0
   -1.9919   14.0540   45.2511 C   0  0  0  0  0
   -2.1108   13.9802   46.6416 C   0  0  0  0  0
   -1.2370   13.1758   47.3773 C   0  0  0  0  0
   -0.2359   12.4359   46.7307 C   0  0  0  0  0
   -0.1292   12.5136   45.3328 C   0  0  0  0  0
    0.6894   11.5932   47.5182 C   0  0  0  0  0
    1.6604   10.8065   46.8910 C   0  0  0  0  0
    2.5146   10.0258   47.6646 C   0  0  0  0  0
    2.3910   10.0454   49.0571 C   0  0  0  0  0
    4.3149    8.4257   49.3080 C   0  0  0  0  0
    4.3236    7.0534   49.9764 C   0  0  0  0  0
    3.2364    8.0229   52.0075 C   0  0  0  0  0
    3.2026    9.3961   51.3445 C   0  0  0  0  0
    5.3573    6.6727   52.2390 C   0  0  0  0  0
    5.4034    6.9313   53.7111 C   0  0  0  0  0
    3.3374    5.9023   54.6552 C   0  0  0  0  0
    3.0380    6.1322   56.0973 C   0  0  0  0  0
    3.1247    7.4375   56.6328 C   0  0  0  0  0
    2.8679    7.6688   57.9965 C   0  0  0  0  0
    2.5336    6.5689   58.7819 C   0  0  0  0  0
    1.9656    5.1735   60.4918 C   0  0  0  0  0
    2.4561    5.3134   58.2706 C   0  0  0  0  0
    2.7033    5.0453   56.9268 C   0  0  0  0  0
    5.5002    4.6285   54.7594 C   0  0  0  0  0
    6.9590    4.6252   55.0198 C   0  0  0  0  0
    7.6561    3.4075   55.0697 C   0  0  0  0  0
    9.0270    3.3833   55.3429 C   0  0  0  0  0
    9.7147    4.5786   55.5715 C   0  0  0  0  0
    9.0291    5.7949   55.5363 C   0  0  0  0  0
    7.6579    5.8170   55.2650 C   0  0  0  0  0
   -0.9118   13.4148   43.1950 O   0  0  0  0  0
    6.2442    5.9424   51.7207 O   0  0  0  0  0
    2.2394    6.5352   60.1300 O   0  0  0  0  0
    2.1101    4.4296   59.2732 O   0  0  0  0  0
    4.8686    3.5379   54.8308 O   0  0  0  0  0
    1.4298   10.8299   49.6191 N   0  0  0  0  0
    0.6087   11.5745   48.8771 N   0  0  0  0  0
    3.2517    9.2493   49.8886 N   0  0  0  0  0
    4.3137    7.2276   51.4247 N   0  0  0  0  0
    4.7792    5.8369   54.4448 N   0  0  0  0  0
   11.0393    4.5554   55.8489 F   0  0  0  0  0
  1 33  1  0  0  0
  2 33  1  0  0  0
  3  4  1  0  0  0
  5  6  1  0  0  0
  6  8  1  0  0  0
  7  2  1  0  0  0
  8 39  1  0  0  0
  9 10  1  0  0  0
 11 38  1  0  0  0
 11 40  1  0  0  0
 12 40  1  0  0  0
 12 13  1  0  0  0
 13 41  1  0  0  0
 14 41  1  0  0  0
 14 15  1  0  0  0
 15 40  1  0  0  0
 17 16  1  0  0  0
 17 42  1  0  0  0
 18 42  1  0  0  0
 18 19  1  0  0  0
 20 21  1  0  0  0
 22 35  1  0  0  0
 23 35  1  0  0  0
 23 36  1  0  0  0
 24 36  1  0  0  0
 24 22  1  0  0  0
 25 19  1  0  0  0
 26 27  1  0  0  0
 28 29  1  0  0  0
 30 43  1  0  0  0
 30 31  1  0  0  0
 32 27  1  0  0  0
 41 16  1  0  0  0
 42 26  1  0  0  0
  2  3  2  0  0  0
  4  5  2  0  0  0
  6  7  2  0  0  0
  8  9  2  0  0  0
 10 11  2  0  0  0
 16 34  2  0  0  0
 19 20  2  0  0  0
 21 22  2  0  0  0
 24 25  2  0  0  0
 26 37  2  0  0  0
 27 28  2  0  0  0
 29 30  2  0  0  0
 31 32  2  0  0  0
 38 39  2  0  0  0
M  END
> <rmsd>
0.679948509

$$$$
MolPort-035-767-030 3976007 LN02124962 MCULE-5658982109 MCULE-8648135954 PubChem-9896164 ZINC000003976007


 48 49  0  0  0  0  0  0  0  0999 V2000
    2.9649   11.2187   42.5428 C   0  0  0  0  0
    1.8030   11.7363   43.3324 C   0  0  0  0  0
    0.8399   12.5037   42.6782 C   0  0  0  0  0
   -0.2839   12.9328   43.3868 C   0  0  0  0  0
    0.4410   11.8589   45.3254 C   0  0  0  0  0
    1.6133   11.4015   44.6791 C   0  0  0  0  0
    2.5400   10.6259   45.3880 C   0  0  0  0  0
    2.3072   10.3062   46.7280 C   0  0  0  0  0
    1.1329   10.7251   47.3645 C   0  0  0  0  0
    0.2073   11.5174   46.6608 C   0  0  0  0  0
   -0.3446   10.1967   49.3708 C   0  0  0  0  0
   -0.4250    9.9637   50.8476 C   0  0  0  0  0
   -0.8041   11.2598   51.5489 C   0  0  0  0  0
   -1.1633   11.0179   52.9757 C   0  0  0  0  0
    1.3628    8.1672   51.1007 C   0  0  0  0  0
    2.6020    7.7270   51.8149 C   0  0  0  0  0
    3.4788    6.7636   51.0028 C   0  0  0  0  0
    4.8659    6.7001   51.6110 C   0  0  0  0  0
    2.8925    5.3623   50.9336 C   0  0  0  0  0
    2.6249    7.8279   54.3346 C   0  0  0  0  0
    1.9966    7.3940   55.6230 C   0  0  0  0  0
    1.8587    8.5378   56.6297 C   0  0  0  0  0
    0.5028    9.2147   56.4659 C   0  0  0  0  0
   -0.5442    8.4834   57.2430 C   0  0  0  0  0
    3.9922    6.2929   56.7989 C   0  0  0  0  0
    4.5008    5.0698   57.4964 C   0  0  0  0  0
    4.3578    5.2093   59.0102 C   0  0  0  0  0
    2.9269    5.2917   59.4305 C   0  0  0  0  0
    6.3038    4.3214   55.8907 C   0  0  0  0  0
    7.7425    4.0484   55.6237 C   0  0  0  0  0
   -1.1540   13.6321   42.8083 O   0  0  0  0  0
   -0.4443   12.5996   44.6644 O   0  0  0  0  0
   -1.4096   10.2242   48.6975 O   0  0  0  0  0
   -0.5545   11.6292   53.8963 O   0  0  0  0  0
   -2.2072   10.1644   53.3011 O   0  0  0  0  0
    0.7313    7.3709   50.3480 O   0  0  0  0  0
    3.4930    8.7420   54.3173 O   0  0  0  0  0
   -1.2163    9.0908   58.1133 O   0  0  0  0  0
   -0.7746    7.1339   57.0219 O   0  0  0  0  0
    4.6606    7.3651   56.8091 O   0  0  0  0  0
    2.1386    4.3324   59.2171 O   0  0  0  0  0
    2.4740    6.4293   60.0829 O   0  0  0  0  0
    5.4457    4.0759   54.9996 O   0  0  0  0  0
    0.9293   10.3756   48.7374 N   0  0  0  0  0
    0.8443    9.4710   51.3745 N   0  0  0  0  0
    2.2516    7.1716   53.1213 N   0  0  0  0  0
    2.6933    6.2497   56.2006 N   0  0  0  0  0
    5.9019    4.8347   57.1627 N   0  0  0  0  0
  1  2  1  0  0  0
  3  4  1  0  0  0
  4 32  1  0  0  0
  5 32  1  0  0  0
  6  7  1  0  0  0
  6  2  1  0  0  0
  8  9  1  0  0  0
  9 44  1  0  0  0
 10  5  1  0  0  0
 12 11  1  0  0  0
 12 13  1  0  0  0
 12 45  1  0  0  0
 13 14  1  0  0  0
 14 35  1  0  0  0
 16 15  1  0  0  0
 16 17  1  0  0  0
 16 46  1  0  0  0
 17 18  1  0  0  0
 17 19  1  0  0  0
 21 20  1  0  0  0
 21 22  1  0  0  0
 21 47  1  0  0  0
 22 23  1  0  0  0
 23 24  1  0  0  0
 24 39  1  0  0  0
 26 25  1  0  0  0
 26 27  1  0  0  0
 26 48  1  0  0  0
 27 28  1  0  0  0
 28 42  1  0  0  0
 30 29  1  0  0  0
 44 11  1  0  0  0
 45 15  1  0  0  0
 46 20  1  0  0  0
 47 25  1  0  0  0
 48 29  1  0  0  0
  2  3  2  0  0  0
  4 31  2  0  0  0
  5  6  2  0  0  0
  7  8  2  0  0  0
  9 10  2  0  0  0
 11 33  2  0  0  0
 14 34  2  0  0  0
 15 36  2  0  0  0
 20 37  2  0  0  0
 24 38  2  0  0  0
 25 40  2  0  0  0
 28 41  2  0  0  0
 29 43  2  0  0  0
M  END
> <rmsd>
0.625967383

$$$$
MolPort-006-536-867 ChemDiv-V007-4656 MCULE-4625508306 PubChem-46002662 ZINC000103094940


 45 50  0  0  0  0  0  0  0  0999 V2000
   -0.9646   13.5083   41.4016 C   0  0  0  0  0
   -0.5085   13.0900   43.7968 C   0  0  0  0  0
    0.4951   12.1572   43.5134 C   0  0  0  0  0
    1.1823   11.5294   44.5518 C   0  0  0  0  0
    0.8895   11.8135   45.8958 C   0  0  0  0  0
   -0.1318   12.7558   46.1848 C   0  0  0  0  0
   -1.4758   14.0015   47.8570 C   0  0  0  0  0
   -0.8143   13.3804   45.1263 C   0  0  0  0  0
    1.6749   11.1029   46.9436 C   0  0  0  0  0
    1.5407   11.3984   48.3039 C   0  0  0  0  0
    2.3047   10.7100   49.2406 C   0  0  0  0  0
    3.2016    9.7303   48.8075 C   0  0  0  0  0
    4.9897    8.0244   49.2715 C   0  0  0  0  0
    4.8829    6.7417   50.0898 C   0  0  0  0  0
    3.8823    8.0284   51.9895 C   0  0  0  0  0
    3.9802    9.3142   51.1744 C   0  0  0  0  0
    5.8510    6.5026   52.3997 C   0  0  0  0  0
    5.8278    6.8076   53.8640 C   0  0  0  0  0
    3.6519    5.9362   54.7178 C   0  0  0  0  0
    3.2840    6.1572   56.1453 C   0  0  0  0  0
    3.4313    7.4403   56.7189 C   0  0  0  0  0
    3.1115    7.6591   58.0712 C   0  0  0  0  0
    2.6544    6.5688   58.8072 C   0  0  0  0  0
    1.8843    5.1813   60.4422 C   0  0  0  0  0
    2.5165    5.3345   58.2588 C   0  0  0  0  0
    2.8234    5.0795   56.9248 C   0  0  0  0  0
    5.7169    4.5229   54.9398 C   0  0  0  0  0
    7.1552    4.4299   55.2788 C   0  0  0  0  0
    7.8938    5.5706   55.6280 C   0  0  0  0  0
    9.2453    5.4649   55.9682 C   0  0  0  0  0
    9.8694    4.2150   55.9682 C   0  0  0  0  0
    9.1410    3.0710   55.6329 C   0  0  0  0  0
    7.7895    3.1781   55.2929 C   0  0  0  0  0
   -1.2157   13.7394   42.7812 O   0  0  0  0  0
   -0.4669   13.0625   47.5096 O   0  0  0  0  0
    6.7256    5.7107   51.9567 O   0  0  0  0  0
    2.2810    6.5255   60.1356 O   0  0  0  0  0
    2.0504    4.4556   59.2158 O   0  0  0  0  0
    5.0151    3.4747   54.9701 O   0  0  0  0  0
    3.2991    9.4756   47.4742 N   0  0  0  0  0
    2.5651   10.1377   46.5779 N   0  0  0  0  0
    4.0032    8.9942   49.7461 N   0  0  0  0  0
    4.8792    7.0736   51.5116 N   0  0  0  0  0
    5.0952    5.7742   54.5867 N   0  0  0  0  0
   11.1791    4.1119   56.2975 F   0  0  0  0  0
  1 34  1  0  0  0
  2 34  1  0  0  0
  3  4  1  0  0  0
  5  6  1  0  0  0
  5  9  1  0  0  0
  6 35  1  0  0  0
  7 35  1  0  0  0
  8  2  1  0  0  0
  9 41  1  0  0  0
 10 11  1  0  0  0
 12 40  1  0  0  0
 12 42  1  0  0  0
 13 42  1  0  0  0
 13 14  1  0  0  0
 14 43  1  0  0  0
 15 43  1  0  0  0
 15 16  1  0  0  0
 16 42  1  0  0  0
 18 17  1  0  0  0
 18 44  1  0  0  0
 19 44  1  0  0  0
 19 20  1  0  0  0
 21 22  1  0  0  0
 23 37  1  0  0  0
 24 37  1  0  0  0
 24 38  1  0  0  0
 25 38  1  0  0  0
 25 23  1  0  0  0
 26 20  1  0  0  0
 27 28  1  0  0  0
 29 30  1  0  0  0
 31 45  1  0  0  0
 31 32  1  0  0  0
 33 28  1  0  0  0
 43 17  1  0  0  0
 44 27  1  0  0  0
  2  3  2  0  0  0
  4  5  2  0  0  0
  6  8  2  0  0  0
  9 10  2  0  0  0
 11 12  2  0  0  0
 17 36  2  0  0  0
 20 21  2  0  0  0
 22 23  2  0  0  0
 25 26  2  0  0  0
 27 39  2  0  0  0
 28 29  2  0  0  0
 30 31  2  0  0  0
 32 33  2  0  0  0
 40 41  2  0  0  0
M  END
> <rmsd>
0.584962547

$$$$
MolPort-006-536-867 ChemDiv-V007-4656 MCULE-4625508306 PubChem-46002662 ZINC000103094940


 45 50  0  0  0  0  0  0  0  0999 V2000
   -1.5583   15.1746   42.7407 C   0  0  0  0  0
   -0.6340   13.0395   43.5721 C   0  0  0  0  0
   -0.2548   11.7267   43.2911 C   0  0  0  0  0
    0.2955   10.9246   44.2911 C   0  0  0  0  0
    0.4803   11.4140   45.5979 C   0  0  0  0  0
    0.0881   12.7450   45.8877 C   0  0  0  0  0
   -0.1430   14.5890   47.5300 C   0  0  0  0  0
   -0.4628   13.5390   44.8679 C   0  0  0  0  0
    1.0764   10.5120   46.6232 C   0  0  0  0  0
    1.5051    9.2265   46.2778 C   0  0  0  0  0
    2.0605    8.4005   47.2498 C   0  0  0  0  0
    2.1825    8.8672   48.5613 C   0  0  0  0  0
    2.8084    8.5514   50.9699 C   0  0  0  0  0
    3.1877    7.4488   51.9557 C   0  0  0  0  0
    4.4102    6.2916   50.0552 C   0  0  0  0  0
    3.1264    6.6520   49.3083 C   0  0  0  0  0
    5.4666    6.4508   52.3273 C   0  0  0  0  0
    5.4076    6.7880   53.7863 C   0  0  0  0  0
    3.3525    5.7573   54.7680 C   0  0  0  0  0
    3.0789    6.0036   56.2119 C   0  0  0  0  0
    3.1411    7.3197   56.7248 C   0  0  0  0  0
    2.9105    7.5674   58.0900 C   0  0  0  0  0
    2.6249    6.4721   58.9005 C   0  0  0  0  0
    2.1298    5.0917   60.6451 C   0  0  0  0  0
    2.5728    5.2055   58.4113 C   0  0  0  0  0
    2.7969    4.9209   57.0664 C   0  0  0  0  0
    5.5191    4.4927   54.8280 C   0  0  0  0  0
    6.9317    4.5261   55.2685 C   0  0  0  0  0
    7.6836    3.3388   55.3122 C   0  0  0  0  0
    9.0036    3.3476   55.7733 C   0  0  0  0  0
    9.5828    4.5446   56.1995 C   0  0  0  0  0
    8.8428    5.7318   56.1640 C   0  0  0  0  0
    7.5222    5.7220   55.7029 C   0  0  0  0  0
   -1.1796   13.8206   42.5499 O   0  0  0  0  0
    0.2451   13.2680   47.1767 O   0  0  0  0  0
    6.5025    5.8906   51.8771 O   0  0  0  0  0
    2.3631    6.4529   60.2574 O   0  0  0  0  0
    2.2766    4.3286   59.4372 O   0  0  0  0  0
    4.9261    3.3818   54.7502 O   0  0  0  0  0
    1.7550   10.1276   48.8489 N   0  0  0  0  0
    1.2240   10.9182   47.9150 N   0  0  0  0  0
    2.7444    8.0380   49.5947 N   0  0  0  0  0
    4.3527    6.7151   51.4593 N   0  0  0  0  0
    4.7902    5.6984   54.5340 N   0  0  0  0  0
   10.8594    4.5518   56.6527 F   0  0  0  0  0
  1 34  1  0  0  0
  2 34  1  0  0  0
  3  4  1  0  0  0
  5  6  1  0  0  0
  5  9  1  0  0  0
  6 35  1  0  0  0
  7 35  1  0  0  0
  8  2  1  0  0  0
  9 41  1  0  0  0
 10 11  1  0  0  0
 12 40  1  0  0  0
 12 42  1  0  0  0
 13 42  1  0  0  0
 13 14  1  0  0  0
 14 43  1  0  0  0
 15 43  1  0  0  0
 15 16  1  0  0  0
 16 42  1  0  0  0
 18 17  1  0  0  0
 18 44  1  0  0  0
 19 44  1  0  0  0
 19 20  1  0  0  0
 21 22  1  0  0  0
 23 37  1  0  0  0
 24 37  1  0  0  0
 24 38  1  0  0  0
 25 38  1  0  0  0
 25 23  1  0  0  0
 26 20  1  0  0  0
 27 28  1  0  0  0
 29 30  1  0  0  0
 31 45  1  0  0  0
 31 32  1  0  0  0
 33 28  1  0  0  0
 43 17  1  0  0  0
 44 27  1  0  0  0
  2  3  2  0  0  0
  4  5  2  0  0  0
  6  8  2  0  0  0
  9 10  2  0  0  0
 11 12  2  0  0  0
 17 36  2  0  0  0
 20 21  2  0  0  0
 22 23  2  0  0  0
 25 26  2  0  0  0
 27 39  2  0  0  0
 28 29  2  0  0  0
 30 31  2  0  0  0
 32 33  2  0  0  0
 40 41  2  0  0  0
M  END
> <rmsd>
0.593461275

$$$$
MolPort-039-136-925 43100810 CHEMBL218650 LN01267595 MCULE-6549623848 MCULE-7485070520 PubChem-6480466 PubChem-6480475 PubChem-6480476 ZINC000043100810


 38 42  0  0  0  0  0  0  0  0999 V2000
    7.8416    4.2708   55.0081 C   0  0  0  0  0
    6.3402    4.3376   54.7891 C   0  0  0  0  0
    5.9810    3.9125   53.3702 C   0  0  0  0  0
    5.8239    5.5593   51.5286 C   0  0  0  0  0
    6.4876    6.3486   50.5856 C   0  0  0  0  0
    5.7617    7.1420   49.6933 C   0  0  0  0  0
    4.3579    7.1621   49.7329 C   0  0  0  0  0
    4.2895    8.7930   47.8053 C   0  0  0  0  0
    3.6226    8.5983   46.4445 C   0  0  0  0  0
    2.1142    8.8376   46.5335 C   0  0  0  0  0
    1.1161   11.0290   45.9577 C   0  0  0  0  0
    0.9111   12.3667   46.3086 C   0  0  0  0  0
    0.1849   13.2143   45.4663 C   0  0  0  0  0
   -0.3453   12.7346   44.2645 C   0  0  0  0  0
   -1.6729   13.2407   42.2106 C   0  0  0  0  0
   -0.1406   11.3913   43.9107 C   0  0  0  0  0
    0.5857   10.5441   44.7515 C   0  0  0  0  0
    1.4853    7.9384   47.5988 C   0  0  0  0  0
    2.1635    8.1373   48.9524 C   0  0  0  0  0
    3.6959    6.3663   50.6818 C   0  0  0  0  0
    4.4213    5.5713   51.5725 C   0  0  0  0  0
    5.8125    5.7781   55.0876 C   0  0  0  0  0
    4.0499    6.2036   56.9672 C   0  0  0  0  0
    3.5131    5.1978   57.7803 C   0  0  0  0  0
    4.8480    4.2747   56.4826 C   0  0  0  0  0
    6.5773    4.7802   52.4110 O   0  0  0  0  0
    1.8465   10.2066   46.8197 O   0  0  0  0  0
   -1.0665   13.6138   43.4463 O   0  0  0  0  0
    2.1459    4.4720   59.5119 O   0  0  0  0  0
    2.0525    6.6861   59.0334 O   0  0  0  0  0
    5.6735    3.4763   55.7305 O   0  0  0  0  0
    3.6103    7.9773   48.8114 N   0  0  0  0  0
    4.8882    5.5368   56.1687 N   0  0  0  0  0
    2.5512    5.4233   58.8133 N   0  0  0  0  0
    4.0131    3.9645   57.4850 N   0  0  0  0  0
   -2.6177   12.2532   42.4246 F   0  0  0  0  0
   -0.7110   12.7819   41.3285 F   0  0  0  0  0
   -2.2943   14.3457   41.6616 F   0  0  0  0  0
  2  1  1  0  0  0
  2  3  1  0  0  0
  2 22  1  0  0  0
  2 31  1  0  0  0
  3 26  1  0  0  0
  4 26  1  0  0  0
  5  6  1  0  0  0
  7 32  1  0  0  0
  7 20  1  0  0  0
  8 32  1  0  0  0
  8  9  1  0  0  0
  9 10  1  0  0  0
 10 27  1  0  0  0
 10 18  1  0  0  0
 11 27  1  0  0  0
 12 13  1  0  0  0
 14 28  1  0  0  0
 14 16  1  0  0  0
 15 28  1  0  0  0
 15 36  1  0  0  0
 15 37  1  0  0  0
 15 38  1  0  0  0
 17 11  1  0  0  0
 18 19  1  0  0  0
 19 32  1  0  0  0
 21  4  1  0  0  0
 22 33  1  0  0  0
 24 34  1  0  0  0
 24 35  1  0  0  0
 25 31  1  0  0  0
 25 33  1  0  0  0
 33 23  1  0  0  0
 34 30  1  0  0  0
  4  5  2  0  0  0
  6  7  2  0  0  0
 11 12  2  0  0  0
 13 14  2  0  0  0
 16 17  2  0  0  0
 20 21  2  0  0  0
 23 24  2  0  0  0
 25 35  2  0  0  0
 34 29  2  0  0  0
M  CHG  2  34   1  30  -1
M  END
> <rmsd>
0.768959701

$$$$
MolPort-000-747-470 LN01787762 PubChem-5979770


 44 48  0  0  0  0  0  0  0  0999 V2000
    8.2711    3.4613   55.3597 C   0  0  0  0  0
    6.3740    4.9404   54.8453 C   0  0  0  0  0
    5.8904    6.2863   54.4028 C   0  0  0  0  0
    5.8637    7.2963   55.5598 C   0  0  0  0  0
    4.7085    7.1188   56.4963 C   0  0  0  0  0
    3.6960    8.0798   56.5234 C   0  0  0  0  0
    2.6192    7.9371   57.3984 C   0  0  0  0  0
    2.5472    6.8371   58.2584 C   0  0  0  0  0
    3.5737    5.8638   58.2507 C   0  0  0  0  0
    4.6495    6.0243   57.3650 C   0  0  0  0  0
    3.9953    7.2712   53.0175 C   0  0  0  0  0
    2.6756    7.0691   52.3605 C   0  0  0  0  0
    1.7809    7.2909   48.8675 C   0  0  0  0  0
    3.0136    7.8656   48.2408 C   0  0  0  0  0
    2.6188    8.7924   47.0962 C   0  0  0  0  0
    1.7030    8.1002   46.0618 C   0  0  0  0  0
    2.5859    7.1884   45.2171 C   0  0  0  0  0
    1.0484    9.1547   45.1257 C   0  0  0  0  0
    0.6560   10.4486   45.8437 C   0  0  0  0  0
    0.0789   11.4148   44.8281 C   0  0  0  0  0
   -1.2891   10.9324   44.3422 C   0  0  0  0  0
   -2.3585   11.4203   45.3170 C   0  0  0  0  0
   -1.4186    9.4006   44.2408 C   0  0  0  0  0
   -2.2176    9.1102   42.9723 C   0  0  0  0  0
   -2.5021   10.4377   42.2946 C   0  0  0  0  0
   -1.5443   11.4336   42.9205 C   0  0  0  0  0
   -1.9867   12.8774   42.8112 C   0  0  0  0  0
   -3.3298   13.2526   42.2678 C   0  0  0  0  0
   -0.0926    8.6078   44.2062 C   0  0  0  0  0
   -0.3785    7.1166   44.4256 C   0  0  0  0  0
   -0.5662    6.7966   45.9072 C   0  0  0  0  0
    0.6071    7.2648   46.7183 C   0  0  0  0  0
    0.6450    6.9294   48.0115 C   0  0  0  0  0
    7.7464    4.7016   54.9080 O   0  0  0  0  0
    5.5501    4.0472   55.1886 O   0  0  0  0  0
    1.4536    6.7294   59.1092 O   0  0  0  0  0
    4.5644    3.7860   59.0593 O   0  0  0  0  0
    2.5987    4.5175   59.9053 O   0  0  0  0  0
    4.5646    8.3944   52.9544 O   0  0  0  0  0
    2.7929    7.2974   50.9688 O   0  0  0  0  0
   -1.2271   13.7651   43.1652 O   0  0  0  0  0
    3.5475    4.7140   59.1171 N   0  0  0  0  0
    4.5993    6.1862   53.7255 N   0  0  0  0  0
    1.7302    7.0335   50.1351 N   0  0  0  0  0
  1 34  1  0  0  0
  2 34  1  0  0  0
  3  2  1  0  0  0
  3  4  1  0  0  0
  3 43  1  0  0  0
  4  5  1  0  0  0
  6  7  1  0  0  0
  8 36  1  0  0  0
  8  9  1  0  0  0
  9 42  1  0  0  0
 10  5  1  0  0  0
 12 11  1  0  0  0
 12 40  1  0  0  0
 14 13  1  0  0  0
 14 15  1  0  0  0
 15 16  1  0  0  0
 16 17  1  0  0  0
 16 18  1  0  0  0
 16 32  1  0  0  0
 18 19  1  0  0  0
 19 20  1  0  0  0
 20 21  1  0  0  0
 21 22  1  0  0  0
 21 23  1  0  0  0
 23 24  1  0  0  0
 23 29  1  0  0  0
 24 25  1  0  0  0
 25 26  1  0  0  0
 26 27  1  0  0  0
 26 21  1  0  0  0
 28 27  1  0  0  0
 29 30  1  0  0  0
 29 18  1  0  0  0
 30 31  1  0  0  0
 31 32  1  0  0  0
 33 13  1  0  0  0
 40 44  1  0  0  0
 42 37  1  0  0  0
 43 11  1  0  0  0
  2 35  2  0  0  0
  5  6  2  0  0  0
  7  8  2  0  0  0
  9 10  2  0  0  0
 11 39  2  0  0  0
 13 44  2  0  0  0
 27 41  2  0  0  0
 32 33  2  0  0  0
 42 38  2  0  0  0
M  CHG  2  42   1  37  -1
M  END
> <rmsd>
0.799731314

$$$$
MolPort-023-276-122 NSC24559 PubChem-90479798


 76 83  0  0  0  0  0  0  0  0999 V2000
   -4.0298    4.6846   54.8265 C   0  0  0  0  0
   -3.4314    6.7442   55.4037 C   0  0  0  0  0
   -2.6874    7.7060   54.4597 C   0  0  0  0  0
   -3.0720    7.5376   52.9877 C   0  0  0  0  0
   -2.3026    8.4901   52.1330 C   0  0  0  0  0
   -0.9255    8.6295   52.3264 C   0  0  0  0  0
   -0.3182    7.9715   53.5105 C   0  0  0  0  0
   -1.1692    7.6157   54.7143 C   0  0  0  0  0
    0.2376    7.8909   56.4650 C   0  0  0  0  0
   -0.2322    6.8303   57.4680 C   0  0  0  0  0
    0.9862    6.1934   58.1316 C   0  0  0  0  0
    1.7482    4.1177   57.7274 C   0  0  0  0  0
    2.0905    3.1327   56.5917 C   0  0  0  0  0
    3.3572    2.3216   56.8923 C   0  0  0  0  0
    5.3167    2.4131   55.8496 C   0  0  0  0  0
    6.5747    1.9458   56.6070 C   0  0  0  0  0
    7.8775    2.2440   55.8516 C   0  0  0  0  0
    8.2705    3.6947   56.0911 C   0  0  0  0  0
    7.7222    2.0160   54.3316 C   0  0  0  0  0
    6.3110    2.3665   53.8336 C   0  0  0  0  0
    6.3933    3.0354   52.4710 C   0  0  0  0  0
    3.3455    1.7842   58.3305 C   0  0  0  0  0
    2.6771    2.7754   59.2972 C   0  0  0  0  0
    3.3849    2.7510   60.6380 C   0  0  0  0  0
    1.9203    7.2767   58.6830 C   0  0  0  0  0
    2.1503    8.4036   57.6626 C   0  0  0  0  0
    3.1527    8.0227   56.5821 C   0  0  0  0  0
   -0.1699    9.4149   51.4291 C   0  0  0  0  0
   -0.8078   10.0766   50.3520 C   0  0  0  0  0
   -0.0937   10.8433   49.3997 C   0  0  0  0  0
   -0.7723   11.4858   48.3453 C   0  0  0  0  0
    0.0494   12.2077   47.3305 C   0  0  0  0  0
   -2.1882   11.4035   48.2563 C   0  0  0  0  0
   -2.5025   12.7880   46.1673 C   0  0  0  0  0
   -3.6418   12.9567   45.1567 C   0  0  0  0  0
   -3.4650   14.2426   44.3382 C   0  0  0  0  0
   -4.4725   15.3944   42.5797 C   0  0  0  0  0
   -3.3395   15.9340   41.7015 C   0  0  0  0  0
   -3.7355   17.2737   41.0775 C   0  0  0  0  0
   -4.3690   18.2023   42.1158 C   0  0  0  0  0
   -5.4314   17.4266   42.9143 C   0  0  0  0  0
   -6.1193   18.3299   43.9259 C   0  0  0  0  0
   -1.9782   14.6067   44.1708 C   0  0  0  0  0
   -1.2400   14.5579   45.5252 C   0  0  0  0  0
   -0.7557   15.9496   45.8813 C   0  0  0  0  0
   -2.8774   10.6306   49.1918 C   0  0  0  0  0
   -2.2120    9.9630   50.2173 C   0  0  0  0  0
   -2.9446    9.1662   51.0977 C   0  0  0  0  0
   -3.9809    7.4897   56.5959 C   0  0  0  0  0
   -5.4539    7.5811   56.8856 C   0  0  0  0  0
   -6.0365    6.2207   57.2793 C   0  0  0  0  0
   -5.4625    5.7587   58.6033 C   0  0  0  0  0
   -4.4327    6.0176   54.7426 O   0  0  0  0  0
    0.9062    7.6585   53.5147 O   0  0  0  0  0
   -0.8549    8.4546   55.7976 O   0  0  0  0  0
    1.6837    5.4124   57.1966 O   0  0  0  0  0
    4.4847    3.1297   56.7100 O   0  0  0  0  0
    8.8907    1.4314   56.3616 O   0  0  0  0  0
    8.0072    0.6903   53.9904 O   0  0  0  0  0
    5.6472    3.2112   54.7402 O   0  0  0  0  0
    2.6778    0.5590   58.3742 O   0  0  0  0  0
    2.7084    4.0745   58.7653 O   0  0  0  0  0
    1.3841    7.8135   59.8532 O   0  0  0  0  0
    0.9421    8.9177   57.1344 O   0  0  0  0  0
    1.2014    9.5402   51.6212 O   0  0  0  0  0
    1.2938   10.9673   49.4806 O   0  0  0  0  0
   -2.9734   12.0448   47.2852 O   0  0  0  0  0
   -4.1345   14.1170   43.1037 O   0  0  0  0  0
   -4.6319   17.0532   40.0304 O   0  0  0  0  0
   -3.3753   18.7058   42.9648 O   0  0  0  0  0
   -4.8504   16.3241   43.5740 O   0  0  0  0  0
   -1.3617   13.7251   43.2806 O   0  0  0  0  0
   -2.0427   14.0538   46.5756 O   0  0  0  0  0
   -3.2042    8.0068   57.3807 O   0  0  0  0  0
   -6.1259    8.0909   55.7674 O   0  0  0  0  0
   -7.4190    6.3125   57.4046 O   0  0  0  0  0
  1 53  1  0  0  0
  2 53  1  0  0  0
  2  3  1  0  0  0
  2 49  1  0  0  0
  3  4  1  0  0  0
  4  5  1  0  0  0
  6  7  1  0  0  0
  6 28  1  0  0  0
  8  7  1  0  0  0
  8 55  1  0  0  0
  8  3  1  0  0  0
  9 55  1  0  0  0
  9 10  1  0  0  0
  9 64  1  0  0  0
 10 11  1  0  0  0
 11 56  1  0  0  0
 11 25  1  0  0  0
 12 56  1  0  0  0
 12 13  1  0  0  0
 12 62  1  0  0  0
 13 14  1  0  0  0
 14 57  1  0  0  0
 14 22  1  0  0  0
 15 57  1  0  0  0
 15 16  1  0  0  0
 15 60  1  0  0  0
 16 17  1  0  0  0
 17 18  1  0  0  0
 17 58  1  0  0  0
 17 19  1  0  0  0
 19 59  1  0  0  0
 19 20  1  0  0  0
 20 21  1  0  0  0
 20 60  1  0  0  0
 22 61  1  0  0  0
 22 23  1  0  0  0
 23 24  1  0  0  0
 23 62  1  0  0  0
 25 63  1  0  0  0
 25 26  1  0  0  0
 26 27  1  0  0  0
 26 64  1  0  0  0
 28 65  1  0  0  0
 29 30  1  0  0  0
 30 66  1  0  0  0
 31 33  1  0  0  0
 32 31  1  0  0  0
 33 67  1  0  0  0
 34 67  1  0  0  0
 34 35  1  0  0  0
 34 73  1  0  0  0
 35 36  1  0  0  0
 36 68  1  0  0  0
 36 43  1  0  0  0
 37 68  1  0  0  0
 37 38  1  0  0  0
 37 71  1  0  0  0
 38 39  1  0  0  0
 39 69  1  0  0  0
 39 40  1  0  0  0
 40 70  1  0  0  0
 40 41  1  0  0  0
 41 42  1  0  0  0
 41 71  1  0  0  0
 43 72  1  0  0  0
 43 44  1  0  0  0
 44 45  1  0  0  0
 44 73  1  0  0  0
 46 47  1  0  0  0
 47 29  1  0  0  0
 48  5  1  0  0  0
 50 49  1  0  0  0
 50 75  1  0  0  0
 50 51  1  0  0  0
 51 52  1  0  0  0
 51 76  1  0  0  0
  5  6  2  0  0  0
  7 54  2  0  0  0
 28 29  2  0  0  0
 30 31  2  0  0  0
 33 46  2  0  0  0
 47 48  2  0  0  0
 49 74  2  0  0  0
M  END
> <rmsd>
0.601911724

$$$$
MolPort-046-697-231 MCULE-5394326544


 61 66  0  0  0  0  0  0  0  0999 V2000
    2.9020    8.6132   60.2482 C   0  0  0  0  0
    2.5934    6.4885   59.7248 C   0  0  0  0  0
    2.6058    5.7771   58.3797 C   0  0  0  0  0
    3.3159    5.8967   56.2313 C   0  0  0  0  0
    3.0803    7.0051   54.1973 C   0  0  0  0  0
    2.6679    5.7270   53.4621 C   0  0  0  0  0
    1.8255    7.7411   54.6815 C   0  0  0  0  0
    3.8500    7.9055   53.2141 C   0  0  0  0  0
    3.0810    8.2360   51.9555 C   0  0  0  0  0
    3.6720    9.5482   51.5619 C   0  0  0  0  0
    4.2037   10.1262   52.8583 C   0  0  0  0  0
    3.2372   11.1963   53.3431 C   0  0  0  0  0
    5.6210   10.7028   52.6634 C   0  0  0  0  0
    5.8365   11.5498   51.4070 C   0  0  0  0  0
    5.0048   12.8256   51.3987 C   0  0  0  0  0
    5.2920   13.6502   50.1795 C   0  0  0  0  0
    5.7845   14.8739   50.3455 C   0  0  0  0  0
    4.9713   13.1895   48.7777 C   0  0  0  0  0
    5.6588   11.9042   48.3709 C   0  0  0  0  0
    4.8472   11.3501   47.2122 C   0  0  0  0  0
    3.5350   12.1379   47.1550 C   0  0  0  0  0
    3.4995   13.0461   48.3971 C   0  0  0  0  0
    2.6826   12.3361   49.4732 C   0  0  0  0  0
    2.8835   14.4220   48.1231 C   0  0  0  0  0
    1.6709   14.2903   47.2120 C   0  0  0  0  0
    2.0766   13.7817   45.8264 C   0  0  0  0  0
    1.2460   13.1898   43.8215 C   0  0  0  0  0
    2.4953   12.3604   43.4497 C   0  0  0  0  0
    3.1932   11.8092   44.6969 C   0  0  0  0  0
    3.3385   12.8690   45.8010 C   0  0  0  0  0
    4.5437   13.7448   45.4694 C   0  0  0  0  0
   -0.0081   12.7879   43.0095 C   0  0  0  0  0
   -0.3036   11.3141   43.2391 C   0  0  0  0  0
    0.2455   12.9658   41.5125 C   0  0  0  0  0
   -0.9540   14.8949   43.2448 C   0  0  0  0  0
   -0.5221   16.8370   44.2803 C   0  0  0  0  0
   -0.2352   17.4987   45.6043 C   0  0  0  0  0
   -1.5039   17.6877   43.4599 C   0  0  0  0  0
   -2.5579   16.8317   42.7468 C   0  0  0  0  0
   -1.9597   15.5053   42.2396 C   0  0  0  0  0
    3.8858    4.4730   56.1887 C   0  0  0  0  0
    6.2808    4.0076   55.5482 C   0  0  0  0  0
    7.7194    4.0234   55.9110 C   0  0  0  0  0
    3.1268    3.6234   57.2116 C   0  0  0  0  0
    3.0540    4.3195   58.5715 C   0  0  0  0  0
    2.0158    7.7535   59.5940 O   0  0  0  0  0
    3.4914    6.4485   57.5136 O   0  0  0  0  0
    3.9574    6.7083   55.2739 O   0  0  0  0  0
    4.2565    9.1051   53.8299 O   0  0  0  0  0
    6.0572   11.3883   53.7985 O   0  0  0  0  0
    0.9814   13.1561   45.2064 O   0  0  0  0  0
   -1.1584   13.5105   43.4169 O   0  0  0  0  0
   -1.0224   15.5384   44.4915 O   0  0  0  0  0
    0.5112   18.6634   45.4067 O   0  0  0  0  0
   -0.7930   18.4363   42.5229 O   0  0  0  0  0
   -3.6206   16.5801   43.6229 O   0  0  0  0  0
   -2.9760   14.6029   41.8971 O   0  0  0  0  0
    5.9265    3.5853   54.4174 O   0  0  0  0  0
    3.7198    2.3670   57.3408 O   0  0  0  0  0
    2.1447    3.6450   59.3879 O   0  0  0  0  0
    5.3150    4.4872   56.4833 N   0  0  0  0  0
  1 46  1  0  0  0
  2 46  1  0  0  0
  3  2  1  0  0  0
  3 47  1  0  0  0
  4 47  1  0  0  0
  4 48  1  0  0  0
  4 41  1  0  0  0
  5 48  1  0  0  0
  5  6  1  0  0  0
  5  7  1  0  0  0
  5  8  1  0  0  0
  8  9  1  0  0  0
  8 49  1  0  0  0
  9 10  1  0  0  0
 10 11  1  0  0  0
 11 12  1  0  0  0
 11 49  1  0  0  0
 11 13  1  0  0  0
 13 50  1  0  0  0
 13 14  1  0  0  0
 14 15  1  0  0  0
 15 16  1  0  0  0
 18 16  1  0  0  0
 18 19  1  0  0  0
 19 20  1  0  0  0
 20 21  1  0  0  0
 21 22  1  0  0  0
 22 23  1  0  0  0
 22 24  1  0  0  0
 22 18  1  0  0  0
 24 25  1  0  0  0
 25 26  1  0  0  0
 26 51  1  0  0  0
 27 51  1  0  0  0
 27 28  1  0  0  0
 27 32  1  0  0  0
 28 29  1  0  0  0
 29 30  1  0  0  0
 30 31  1  0  0  0
 30 26  1  0  0  0
 30 21  1  0  0  0
 32 33  1  0  0  0
 32 34  1  0  0  0
 32 52  1  0  0  0
 35 52  1  0  0  0
 35 53  1  0  0  0
 36 53  1  0  0  0
 36 37  1  0  0  0
 36 38  1  0  0  0
 37 54  1  0  0  0
 38 55  1  0  0  0
 38 39  1  0  0  0
 39 56  1  0  0  0
 39 40  1  0  0  0
 40 57  1  0  0  0
 40 35  1  0  0  0
 41 61  1  0  0  0
 41 44  1  0  0  0
 43 42  1  0  0  0
 44 59  1  0  0  0
 44 45  1  0  0  0
 45 60  1  0  0  0
 45  3  1  0  0  0
 61 42  1  0  0  0
 16 17  2  0  0  0
 42 58  2  0  0  0
M  END
> <rmsd>
0.590675414

$$$$
MolPort-046-697-231 MCULE-5394326544


 61 66  0  0  0  0  0  0  0  0999 V2000
    2.7343    8.7870   59.8045 C   0  0  0  0  0
    2.5283    6.6051   59.5207 C   0  0  0  0  0
    2.5886    5.7492   58.2640 C   0  0  0  0  0
    3.3175    5.6607   56.1204 C   0  0  0  0  0
    3.0555    6.5227   53.9734 C   0  0  0  0  0
    2.7100    5.1528   53.3836 C   0  0  0  0  0
    1.7631    7.2494   54.3639 C   0  0  0  0  0
    3.7951    7.3423   52.9004 C   0  0  0  0  0
    3.0266    7.4942   51.6077 C   0  0  0  0  0
    3.5620    8.7801   51.0733 C   0  0  0  0  0
    4.0520    9.5233   52.3001 C   0  0  0  0  0
    3.0324   10.5950   52.6555 C   0  0  0  0  0
    5.4438   10.1396   52.0510 C   0  0  0  0  0
    5.6353   10.8499   50.7089 C   0  0  0  0  0
    4.7469   12.0769   50.5521 C   0  0  0  0  0
    5.0106   12.7725   49.2500 C   0  0  0  0  0
    5.4452   14.0285   49.2809 C   0  0  0  0  0
    4.7273   12.1436   47.9067 C   0  0  0  0  0
    5.4770   10.8541   47.6511 C   0  0  0  0  0
    4.7049   10.1371   46.5566 C   0  0  0  0  0
    3.3591   10.8520   46.4029 C   0  0  0  0  0
    3.2681   11.8907   47.5351 C   0  0  0  0  0
    2.4717   11.2683   48.6787 C   0  0  0  0  0
    2.5937   13.1973   47.1045 C   0  0  0  0  0
    1.3989   12.9086   46.2061 C   0  0  0  0  0
    1.8433   12.2678   44.8890 C   0  0  0  0  0
    1.0637   11.4176   42.9578 C   0  0  0  0  0
    2.3535   10.6106   42.6895 C   0  0  0  0  0
    3.0611   10.2352   43.9950 C   0  0  0  0  0
    3.1454   11.4173   44.9742 C   0  0  0  0  0
    4.3135   12.3055   44.5543 C   0  0  0  0  0
   -0.1614   10.8699   42.1879 C   0  0  0  0  0
   -0.3925    9.4190   42.5794 C   0  0  0  0  0
    0.1012   10.8910   40.6820 C   0  0  0  0  0
   -1.2044   12.9440   42.1792 C   0  0  0  0  0
   -0.8730   15.0075   42.9931 C   0  0  0  0  0
   -0.6317   15.8256   44.2364 C   0  0  0  0  0
   -1.8827   15.7149   42.0762 C   0  0  0  0  0
   -2.8884   14.7366   41.4567 C   0  0  0  0  0
   -2.2250   13.3910   41.1054 C   0  0  0  0  0
    3.9517    4.2691   56.2414 C   0  0  0  0  0
    6.3726    3.8464   55.6727 C   0  0  0  0  0
    7.8047    3.9692   56.0407 C   0  0  0  0  0
    3.2201    3.5049   57.3482 C   0  0  0  0  0
    3.1001    4.3444   58.6210 C   0  0  0  0  0
    1.8957    7.8195   59.2451 O   0  0  0  0  0
    3.4528    6.3599   57.3338 O   0  0  0  0  0
    3.9326    6.3891   55.0822 O   0  0  0  0  0
    4.1396    8.6207   53.3804 O   0  0  0  0  0
    5.8354   10.9670   53.1048 O   0  0  0  0  0
    0.7848   11.5267   44.3360 O   0  0  0  0  0
   -1.3479   11.5795   42.5042 O   0  0  0  0  0
   -1.3164   13.7189   43.3454 O   0  0  0  0  0
    0.0634   16.9942   43.9142 O   0  0  0  0  0
   -1.1956   16.3861   41.0657 O   0  0  0  0  0
   -3.9488   14.5356   42.3487 O   0  0  0  0  0
   -3.1954   12.4099   40.8597 O   0  0  0  0  0
    6.0509    3.2845   54.5942 O   0  0  0  0  0
    3.8679    2.2996   57.6214 O   0  0  0  0  0
    2.2128    3.7241   59.5020 O   0  0  0  0  0
    5.3753    4.3823   56.5419 N   0  0  0  0  0
  1 46  1  0  0  0
  2 46  1  0  0  0
  3  2  1  0  0  0
  3 47  1  0  0  0
  4 47  1  0  0  0
  4 48  1  0  0  0
  4 41  1  0  0  0
  5 48  1  0  0  0
  5  6  1  0  0  0
  5  7  1  0  0  0
  5  8  1  0  0  0
  8  9  1  0  0  0
  8 49  1  0  0  0
  9 10  1  0  0  0
 10 11  1  0  0  0
 11 12  1  0  0  0
 11 49  1  0  0  0
 11 13  1  0  0  0
 13 50  1  0  0  0
 13 14  1  0  0  0
 14 15  1  0  0  0
 15 16  1  0  0  0
 18 16  1  0  0  0
 18 19  1  0  0  0
 19 20  1  0  0  0
 20 21  1  0  0  0
 21 22  1  0  0  0
 22 23  1  0  0  0
 22 24  1  0  0  0
 22 18  1  0  0  0
 24 25  1  0  0  0
 25 26  1  0  0  0
 26 51  1  0  0  0
 27 51  1  0  0  0
 27 28  1  0  0  0
 27 32  1  0  0  0
 28 29  1  0  0  0
 29 30  1  0  0  0
 30 31  1  0  0  0
 30 26  1  0  0  0
 30 21  1  0  0  0
 32 33  1  0  0  0
 32 34  1  0  0  0
 32 52  1  0  0  0
 35 52  1  0  0  0
 35 53  1  0  0  0
 36 53  1  0  0  0
 36 37  1  0  0  0
 36 38  1  0  0  0
 37 54  1  0  0  0
 38 55  1  0  0  0
 38 39  1  0  0  0
 39 56  1  0  0  0
 39 40  1  0  0  0
 40 57  1  0  0  0
 40 35  1  0  0  0
 41 61  1  0  0  0
 41 44  1  0  0  0
 43 42  1  0  0  0
 44 59  1  0  0  0
 44 45  1  0  0  0
 45 60  1  0  0  0
 45  3  1  0  0  0
 61 42  1  0  0  0
 16 17  2  0  0  0
 42 58  2  0  0  0
M  END
> <rmsd>
0.60130173

$$$$
MolPort-046-697-231 MCULE-5394326544


 61 66  0  0  0  0  0  0  0  0999 V2000
    2.5278    8.8050   59.4393 C   0  0  0  0  0
    2.5202    6.5957   59.4891 C   0  0  0  0  0
    2.6083    5.5690   58.3694 C   0  0  0  0  0
    3.2496    5.2237   56.2237 C   0  0  0  0  0
    2.8141    5.7261   53.9924 C   0  0  0  0  0
    2.5767    4.2578   53.6293 C   0  0  0  0  0
    1.4759    6.3859   54.3453 C   0  0  0  0  0
    3.4249    6.4370   52.7710 C   0  0  0  0  0
    2.5905    6.3239   51.5157 C   0  0  0  0  0
    2.9766    7.5570   50.7699 C   0  0  0  0  0
    3.4452    8.5168   51.8453 C   0  0  0  0  0
    2.3437    9.5353   52.0978 C   0  0  0  0  0
    4.7595    9.2093   51.4303 C   0  0  0  0  0
    4.8242    9.7236   49.9903 C   0  0  0  0  0
    3.8162   10.8296   49.7068 C   0  0  0  0  0
    3.9557   11.3418   48.3043 C   0  0  0  0  0
    4.2687   12.6216   48.1269 C   0  0  0  0  0
    3.6767   10.4953   47.0854 C   0  0  0  0  0
    4.5351    9.2535   46.9786 C   0  0  0  0  0
    3.7890    8.3143   46.0460 C   0  0  0  0  0
    2.3754    8.8759   45.8663 C   0  0  0  0  0
    2.2339   10.0611   46.8381 C   0  0  0  0  0
    1.5508    9.5499   48.1036 C   0  0  0  0  0
    1.4193   11.2231   46.2604 C   0  0  0  0  0
    0.2203   10.6978   45.4830 C   0  0  0  0  0
    0.6672    9.9078   44.2504 C   0  0  0  0  0
   -0.1094    8.7110   42.5112 C   0  0  0  0  0
    1.2392    7.9902   42.2908 C   0  0  0  0  0
    2.0350    7.8797   43.5950 C   0  0  0  0  0
    2.0474    9.1985   44.3848 C   0  0  0  0  0
    3.1057   10.1132   43.7742 C   0  0  0  0  0
   -1.3082    7.9473   41.9003 C   0  0  0  0  0
   -1.3820    6.5571   42.5118 C   0  0  0  0  0
   -1.1137    7.7646   40.3950 C   0  0  0  0  0
   -2.5449    9.8958   41.6482 C   0  0  0  0  0
   -2.3784   12.0795   42.1322 C   0  0  0  0  0
   -2.1636   13.0936   43.2271 C   0  0  0  0  0
   -3.4898   12.5486   41.1806 C   0  0  0  0  0
   -4.4227   11.4030   40.7686 C   0  0  0  0  0
   -3.6488   10.0839   40.5804 C   0  0  0  0  0
    4.0191    3.9279   56.5104 C   0  0  0  0  0
    6.4427    3.6404   55.8730 C   0  0  0  0  0
    7.8708    3.9435   56.1373 C   0  0  0  0  0
    3.4124    3.2773   57.7566 C   0  0  0  0  0
    3.2671    4.2849   58.8979 C   0  0  0  0  0
    1.7626    7.6939   59.0756 O   0  0  0  0  0
    3.3692    6.1069   57.3125 O   0  0  0  0  0
    3.7468    5.8391   55.0572 O   0  0  0  0  0
    3.6654    7.7985   53.0390 O   0  0  0  0  0
    5.1147   10.2174   52.3283 O   0  0  0  0  0
   -0.3381    9.0012   43.8724 O   0  0  0  0  0
   -2.5427    8.5886   42.1764 O   0  0  0  0  0
   -2.6805   10.8245   42.6933 O   0  0  0  0  0
   -1.5984   14.2573   42.6989 O   0  0  0  0  0
   -2.9143   13.1182   40.0457 O   0  0  0  0  0
   -5.4196   11.2455   41.7391 O   0  0  0  0  0
   -4.5302    8.9950   40.5359 O   0  0  0  0  0
    6.1304    2.8962   54.9080 O   0  0  0  0  0
    4.1840    2.1890   58.1655 O   0  0  0  0  0
    2.4821    3.7282   59.9089 O   0  0  0  0  0
    5.4367    4.2106   56.7099 N   0  0  0  0  0
  1 46  1  0  0  0
  2 46  1  0  0  0
  3  2  1  0  0  0
  3 47  1  0  0  0
  4 47  1  0  0  0
  4 48  1  0  0  0
  4 41  1  0  0  0
  5 48  1  0  0  0
  5  6  1  0  0  0
  5  7  1  0  0  0
  5  8  1  0  0  0
  8  9  1  0  0  0
  8 49  1  0  0  0
  9 10  1  0  0  0
 10 11  1  0  0  0
 11 12  1  0  0  0
 11 49  1  0  0  0
 11 13  1  0  0  0
 13 50  1  0  0  0
 13 14  1  0  0  0
 14 15  1  0  0  0
 15 16  1  0  0  0
 18 16  1  0  0  0
 18 19  1  0  0  0
 19 20  1  0  0  0
 20 21  1  0  0  0
 21 22  1  0  0  0
 22 23  1  0  0  0
 22 24  1  0  0  0
 22 18  1  0  0  0
 24 25  1  0  0  0
 25 26  1  0  0  0
 26 51  1  0  0  0
 27 51  1  0  0  0
 27 28  1  0  0  0
 27 32  1  0  0  0
 28 29  1  0  0  0
 29 30  1  0  0  0
 30 31  1  0  0  0
 30 26  1  0  0  0
 30 21  1  0  0  0
 32 33  1  0  0  0
 32 34  1  0  0  0
 32 52  1  0  0  0
 35 52  1  0  0  0
 35 53  1  0  0  0
 36 53  1  0  0  0
 36 37  1  0  0  0
 36 38  1  0  0  0
 37 54  1  0  0  0
 38 55  1  0  0  0
 38 39  1  0  0  0
 39 56  1  0  0  0
 39 40  1  0  0  0
 40 57  1  0  0  0
 40 35  1  0  0  0
 41 61  1  0  0  0
 41 44  1  0  0  0
 43 42  1  0  0  0
 44 59  1  0  0  0
 44 45  1  0  0  0
 45 60  1  0  0  0
 45  3  1  0  0  0
 61 42  1  0  0  0
 16 17  2  0  0  0
 42 58  2  0  0  0
M  END
> <rmsd>
0.699350119

$$$$
MolPort-039-052-717 252478235 MCULE-6580627228 PubChem-102004584 ZINC000252478235


 55 60  0  0  0  0  0  0  0  0999 V2000
    7.9612    4.3975   55.0421 C   0  0  0  0  0
    5.5211    4.7218   55.0185 C   0  0  0  0  0
    4.3636    5.5864   55.3239 C   0  0  0  0  0
    3.1275    5.0675   55.3097 C   0  0  0  0  0
    2.1694    6.9647   56.5492 C   0  0  0  0  0
    1.3017    6.7845   58.6100 C   0  0  0  0  0
    2.4474    6.2042   60.5299 C   0  0  0  0  0
    2.8436    6.6614   61.9201 C   0  0  0  0  0
    1.7667    4.8232   60.6034 C   0  0  0  0  0
    0.3710    4.8396   59.9806 C   0  0  0  0  0
    0.3957    5.5413   58.6142 C   0  0  0  0  0
    3.3202    7.8327   56.0282 C   0  0  0  0  0
    4.5987    7.0428   55.6881 C   0  0  0  0  0
    5.1419    7.7757   54.5009 C   0  0  0  0  0
    4.2932    8.6803   54.0269 C   0  0  0  0  0
    3.0205    8.6992   54.7978 C   0  0  0  0  0
    1.4310   10.3151   54.6233 C   0  0  0  0  0
    0.9503    9.1830   53.8691 C   0  0  0  0  0
    1.8682    8.2247   53.9395 C   0  0  0  0  0
   -0.3455    9.1185   53.1178 C   0  0  0  0  0
   -1.0922    7.8108   53.3405 C   0  0  0  0  0
    0.4605    8.5891   50.8008 C   0  0  0  0  0
    0.4215    8.9127   49.3722 C   0  0  0  0  0
   -0.1719   10.0124   48.9207 C   0  0  0  0  0
   -0.2605   10.3360   47.4890 C   0  0  0  0  0
    0.3054    9.5042   46.5096 C   0  0  0  0  0
    0.1522    9.8074   45.1538 C   0  0  0  0  0
   -0.5680   10.9400   44.7593 C   0  0  0  0  0
   -1.4543   12.2896   42.8359 C   0  0  0  0  0
   -1.3868   14.4872   42.3552 C   0  0  0  0  0
   -0.5506   15.7506   42.4714 C   0  0  0  0  0
   -2.8549   14.7519   42.7258 C   0  0  0  0  0
   -3.6570   13.4539   42.6039 C   0  0  0  0  0
   -2.9300   12.2756   43.2547 C   0  0  0  0  0
   -1.1205   11.7806   45.7403 C   0  0  0  0  0
   -0.9690   11.4772   47.0963 C   0  0  0  0  0
    6.8127    5.2109   55.2187 O   0  0  0  0  0
    5.3443    3.5416   54.6075 O   0  0  0  0  0
    2.0192    5.8130   55.7215 O   0  0  0  0  0
    2.4625    6.5526   57.8530 O   0  0  0  0  0
    1.6315    7.1905   59.9256 O   0  0  0  0  0
    3.9624    5.9508   62.3496 O   0  0  0  0  0
    2.5631    3.8836   59.9469 O   0  0  0  0  0
   -0.5143    5.4840   60.8492 O   0  0  0  0  0
   -0.8971    5.8857   58.2111 O   0  0  0  0  0
    2.6625   10.0246   55.1739 O   0  0  0  0  0
    0.8327   11.4139   54.7662 O   0  0  0  0  0
   -0.1927    9.4170   51.7281 O   0  0  0  0  0
    1.0644    7.5450   51.1735 O   0  0  0  0  0
   -0.7324   11.1868   43.3888 O   0  0  0  0  0
   -0.8524   13.5049   43.2073 O   0  0  0  0  0
   -0.7139   16.5344   41.3291 O   0  0  0  0  0
   -3.4073   15.7089   41.8725 O   0  0  0  0  0
   -4.9100   13.6174   43.1933 O   0  0  0  0  0
   -3.5255   11.0814   42.8502 O   0  0  0  0  0
  1 37  1  0  0  0
  2 37  1  0  0  0
  2  3  1  0  0  0
  4 39  1  0  0  0
  5 39  1  0  0  0
  5 40  1  0  0  0
  6 40  1  0  0  0
  6 41  1  0  0  0
  7 41  1  0  0  0
  7  8  1  0  0  0
  7  9  1  0  0  0
  8 42  1  0  0  0
  9 43  1  0  0  0
  9 10  1  0  0  0
 10 44  1  0  0  0
 10 11  1  0  0  0
 11 45  1  0  0  0
 11  6  1  0  0  0
 12  5  1  0  0  0
 12 13  1  0  0  0
 13 14  1  0  0  0
 13  3  1  0  0  0
 16 15  1  0  0  0
 16 46  1  0  0  0
 16 19  1  0  0  0
 16 12  1  0  0  0
 17 46  1  0  0  0
 17 18  1  0  0  0
 20 18  1  0  0  0
 20 21  1  0  0  0
 20 48  1  0  0  0
 22 48  1  0  0  0
 22 23  1  0  0  0
 24 25  1  0  0  0
 26 27  1  0  0  0
 28 50  1  0  0  0
 28 35  1  0  0  0
 29 50  1  0  0  0
 29 51  1  0  0  0
 30 51  1  0  0  0
 30 31  1  0  0  0
 30 32  1  0  0  0
 31 52  1  0  0  0
 32 53  1  0  0  0
 32 33  1  0  0  0
 33 54  1  0  0  0
 33 34  1  0  0  0
 34 55  1  0  0  0
 34 29  1  0  0  0
 36 25  1  0  0  0
  2 38  2  0  0  0
  3  4  2  0  0  0
 14 15  2  0  0  0
 17 47  2  0  0  0
 18 19  2  0  0  0
 22 49  2  0  0  0
 23 24  2  0  0  0
 25 26  2  0  0  0
 27 28  2  0  0  0
 35 36  2  0  0  0
M  END
> <rmsd>
0.578718781

$$$$
MolPort-039-052-717 252478235 MCULE-6580627228 PubChem-102004584 ZINC000252478235


 55 60  0  0  0  0  0  0  0  0999 V2000
    8.1475    4.1022   55.3578 C   0  0  0  0  0
    5.7879    4.7770   55.1654 C   0  0  0  0  0
    4.7327    5.7642   55.4694 C   0  0  0  0  0
    3.4456    5.4339   55.2908 C   0  0  0  0  0
    2.6326    7.3130   56.6553 C   0  0  0  0  0
    1.5468    7.0504   58.6008 C   0  0  0  0  0
    2.4064    6.1170   60.5310 C   0  0  0  0  0
    2.7195    6.3674   61.9931 C   0  0  0  0  0
    1.5420    4.8489   60.3869 C   0  0  0  0  0
    0.2305    5.1308   59.6543 C   0  0  0  0  0
    0.4860    5.9575   58.3849 C   0  0  0  0  0
    3.9359    8.0539   56.3372 C   0  0  0  0  0
    5.1240    7.1263   56.0176 C   0  0  0  0  0
    5.8769    7.8904   54.9732 C   0  0  0  0  0
    5.2093    8.9520   54.5365 C   0  0  0  0  0
    3.8802    9.0759   55.1940 C   0  0  0  0  0
    2.5480   10.9142   55.0731 C   0  0  0  0  0
    1.9971    9.9467   54.1554 C   0  0  0  0  0
    2.7660    8.8635   54.1923 C   0  0  0  0  0
    0.7861   10.1476   53.2948 C   0  0  0  0  0
   -0.1483    8.9459   53.3012 C   0  0  0  0  0
    1.7410    9.7471   51.0088 C   0  0  0  0  0
    1.8889   10.2172   49.6289 C   0  0  0  0  0
    1.4971   11.4317   49.2586 C   0  0  0  0  0
    1.5964   11.9093   47.8715 C   0  0  0  0  0
    2.1403   11.1090   46.8541 C   0  0  0  0  0
    2.1656   11.5683   45.5343 C   0  0  0  0  0
    1.6475   12.8276   45.2135 C   0  0  0  0  0
    1.1476   14.4809   43.3905 C   0  0  0  0  0
    1.5580   16.6831   43.1739 C   0  0  0  0  0
    2.5408   17.7935   43.5053 C   0  0  0  0  0
    0.1092   17.1182   43.4470 C   0  0  0  0  0
   -0.8440   15.9692   43.1088 C   0  0  0  0  0
   -0.3509   14.6378   43.6785 C   0  0  0  0  0
    1.1178   13.6345   46.2346 C   0  0  0  0  0
    1.0908   13.1753   47.5544 C   0  0  0  0  0
    7.1070    5.0509   55.5292 O   0  0  0  0  0
    5.4958    3.6831   54.6075 O   0  0  0  0  0
    2.4122    6.2859   55.6907 O   0  0  0  0  0
    2.7357    6.7315   57.9230 O   0  0  0  0  0
    1.7952    7.2676   59.9776 O   0  0  0  0  0
    3.6839    5.4622   62.4309 O   0  0  0  0  0
    2.2663    3.8760   59.6961 O   0  0  0  0  0
   -0.6423    5.8042   60.5133 O   0  0  0  0  0
   -0.7019    6.5249   57.9163 O   0  0  0  0  0
    3.6680   10.3937   55.6888 O   0  0  0  0  0
    2.0918   12.0676   55.2907 O   0  0  0  0  0
    1.1158   10.5615   51.9667 O   0  0  0  0  0
    2.1586    8.5939   51.3083 O   0  0  0  0  0
    1.6556   13.2344   43.8716 O   0  0  0  0  0
    1.8675   15.5518   43.9492 O   0  0  0  0  0
    2.5995   18.7054   42.4513 O   0  0  0  0  0
   -0.2212   18.2272   42.6661 O   0  0  0  0  0
   -2.1162   16.2512   43.6050 O   0  0  0  0  0
   -1.0583   13.5901   43.0901 O   0  0  0  0  0
  1 37  1  0  0  0
  2 37  1  0  0  0
  2  3  1  0  0  0
  4 39  1  0  0  0
  5 39  1  0  0  0
  5 40  1  0  0  0
  6 40  1  0  0  0
  6 41  1  0  0  0
  7 41  1  0  0  0
  7  8  1  0  0  0
  7  9  1  0  0  0
  8 42  1  0  0  0
  9 43  1  0  0  0
  9 10  1  0  0  0
 10 44  1  0  0  0
 10 11  1  0  0  0
 11 45  1  0  0  0
 11  6  1  0  0  0
 12  5  1  0  0  0
 12 13  1  0  0  0
 13 14  1  0  0  0
 13  3  1  0  0  0
 16 15  1  0  0  0
 16 46  1  0  0  0
 16 19  1  0  0  0
 16 12  1  0  0  0
 17 46  1  0  0  0
 17 18  1  0  0  0
 20 18  1  0  0  0
 20 21  1  0  0  0
 20 48  1  0  0  0
 22 48  1  0  0  0
 22 23  1  0  0  0
 24 25  1  0  0  0
 26 27  1  0  0  0
 28 50  1  0  0  0
 28 35  1  0  0  0
 29 50  1  0  0  0
 29 51  1  0  0  0
 30 51  1  0  0  0
 30 31  1  0  0  0
 30 32  1  0  0  0
 31 52  1  0  0  0
 32 53  1  0  0  0
 32 33  1  0  0  0
 33 54  1  0  0  0
 33 34  1  0  0  0
 34 55  1  0  0  0
 34 29  1  0  0  0
 36 25  1  0  0  0
  2 38  2  0  0  0
  3  4  2  0  0  0
 14 15  2  0  0  0
 17 47  2  0  0  0
 18 19  2  0  0  0
 22 49  2  0  0  0
 23 24  2  0  0  0
 25 26  2  0  0  0
 27 28  2  0  0  0
 35 36  2  0  0  0
M  END
> <rmsd>
0.431267291

$$$$
MolPort-039-052-717 252478235 MCULE-6580627228 PubChem-102004584 ZINC000252478235


 55 60  0  0  0  0  0  0  0  0999 V2000
    8.3883    3.8133   55.8035 C   0  0  0  0  0
    6.0252    4.3938   55.4310 C   0  0  0  0  0
    4.9333    5.3775   55.5751 C   0  0  0  0  0
    3.6646    4.9922   55.3769 C   0  0  0  0  0
    2.7424    6.9861   56.4850 C   0  0  0  0  0
    1.5713    6.9085   58.3968 C   0  0  0  0  0
    2.3593    6.2195   60.4559 C   0  0  0  0  0
    2.5959    6.6388   61.8935 C   0  0  0  0  0
    1.5334    4.9186   60.4155 C   0  0  0  0  0
    0.2522    5.0796   59.5978 C   0  0  0  0  0
    0.5484    5.7682   58.2568 C   0  0  0  0  0
    4.0415    7.7249   56.1450 C   0  0  0  0  0
    5.2653    6.8026   55.9848 C   0  0  0  0  0
    6.0490    7.4682   54.8965 C   0  0  0  0  0
    5.3779    8.4552   54.3144 C   0  0  0  0  0
    4.0162    8.6124   54.8936 C   0  0  0  0  0
    2.6479   10.3866   54.5083 C   0  0  0  0  0
    2.1649    9.3081   53.6806 C   0  0  0  0  0
    2.9568    8.2583   53.8727 C   0  0  0  0  0
    0.9921    9.3774   52.7492 C   0  0  0  0  0
    0.0874    8.1572   52.8478 C   0  0  0  0  0
    2.0648    8.7547   50.5676 C   0  0  0  0  0
    2.2674    9.0737   49.1519 C   0  0  0  0  0
    1.8649   10.2279   48.6310 C   0  0  0  0  0
    2.0191   10.5521   47.2051 C   0  0  0  0  0
    2.6301    9.6605   46.3090 C   0  0  0  0  0
    2.7077    9.9718   44.9486 C   0  0  0  0  0
    2.1756   11.1723   44.4662 C   0  0  0  0  0
    1.7244   12.5989   42.4494 C   0  0  0  0  0
    2.0921   14.7747   42.0068 C   0  0  0  0  0
    3.0310   15.9430   42.2560 C   0  0  0  0  0
    0.6218   15.1950   42.1642 C   0  0  0  0  0
   -0.2863   13.9886   41.9139 C   0  0  0  0  0
    0.2105   12.7430   42.6503 C   0  0  0  0  0
    1.5785   12.0713   45.3659 C   0  0  0  0  0
    1.4993   11.7601   46.7263 C   0  0  0  0  0
    7.3185    4.7445   55.8209 O   0  0  0  0  0
    5.7864    3.2370   54.9863 O   0  0  0  0  0
    2.5931    5.8528   55.6321 O   0  0  0  0  0
    2.7986    6.5515   57.8130 O   0  0  0  0  0
    1.7481    7.2837   59.7505 O   0  0  0  0  0
    3.5596    5.8158   62.4725 O   0  0  0  0  0
    2.3130    3.8969   59.8710 O   0  0  0  0  0
   -0.6766    5.8182   60.3361 O   0  0  0  0  0
   -0.6288    6.2456   57.6748 O   0  0  0  0  0
    3.7492    9.9700   55.2280 O   0  0  0  0  0
    2.1544   11.5431   54.5750 O   0  0  0  0  0
    1.3751    9.6515   51.3995 O   0  0  0  0  0
    2.4949    7.6544   51.0125 O   0  0  0  0  0
    2.2383   11.4285   43.0890 O   0  0  0  0  0
    2.3909   13.7454   42.9167 O   0  0  0  0  0
    3.1184   16.7342   41.1105 O   0  0  0  0  0
    0.3028   16.2009   41.2502 O   0  0  0  0  0
   -1.5873   14.2866   42.3177 O   0  0  0  0  0
   -0.4427   11.6167   42.1514 O   0  0  0  0  0
  1 37  1  0  0  0
  2 37  1  0  0  0
  2  3  1  0  0  0
  4 39  1  0  0  0
  5 39  1  0  0  0
  5 40  1  0  0  0
  6 40  1  0  0  0
  6 41  1  0  0  0
  7 41  1  0  0  0
  7  8  1  0  0  0
  7  9  1  0  0  0
  8 42  1  0  0  0
  9 43  1  0  0  0
  9 10  1  0  0  0
 10 44  1  0  0  0
 10 11  1  0  0  0
 11 45  1  0  0  0
 11  6  1  0  0  0
 12  5  1  0  0  0
 12 13  1  0  0  0
 13 14  1  0  0  0
 13  3  1  0  0  0
 16 15  1  0  0  0
 16 46  1  0  0  0
 16 19  1  0  0  0
 16 12  1  0  0  0
 17 46  1  0  0  0
 17 18  1  0  0  0
 20 18  1  0  0  0
 20 21  1  0  0  0
 20 48  1  0  0  0
 22 48  1  0  0  0
 22 23  1  0  0  0
 24 25  1  0  0  0
 26 27  1  0  0  0
 28 50  1  0  0  0
 28 35  1  0  0  0
 29 50  1  0  0  0
 29 51  1  0  0  0
 30 51  1  0  0  0
 30 31  1  0  0  0
 30 32  1  0  0  0
 31 52  1  0  0  0
 32 53  1  0  0  0
 32 33  1  0  0  0
 33 54  1  0  0  0
 33 34  1  0  0  0
 34 55  1  0  0  0
 34 29  1  0  0  0
 36 25  1  0  0  0
  2 38  2  0  0  0
  3  4  2  0  0  0
 14 15  2  0  0  0
 17 47  2  0  0  0
 18 19  2  0  0  0
 22 49  2  0  0  0
 23 24  2  0  0  0
 25 26  2  0  0  0
 27 28  2  0  0  0
 35 36  2  0  0  0
M  END
> <rmsd>
0.555580497

$$$$
MolPort-044-637-491 MCULE-3504401803 PubChem-132331223


 56 57  0  0  0  0  0  0  0  0999 V2000
   -0.2729    8.5558   68.2340 C   0  0  0  0  0
    0.5292    7.8087   67.1943 C   0  0  0  0  0
    1.9921    7.8097   67.5919 C   0  0  0  0  0
    2.8095    6.9390   66.6539 C   0  0  0  0  0
    3.1534    7.6687   65.3598 C   0  0  0  0  0
    1.9890    7.6499   64.3740 C   0  0  0  0  0
    1.6595    6.2397   63.8723 C   0  0  0  0  0
    2.7351    5.5732   63.0647 C   0  0  0  0  0
    3.3990    3.5402   61.7638 C   0  0  0  0  0
    4.6244    3.0362   62.5594 C   0  0  0  0  0
    5.9288    3.8098   62.3055 C   0  0  0  0  0
    5.9492    4.4685   60.9047 C   0  0  0  0  0
    7.3289    4.6210   60.2754 C   0  0  0  0  0
    3.7809    4.2790   60.4737 C   0  0  0  0  0
    2.9753    5.0767   58.5436 C   0  0  0  0  0
    2.7773    4.5001   57.1344 C   0  0  0  0  0
    3.7583    3.3681   56.8575 C   0  0  0  0  0
    5.9686    3.7913   55.8647 C   0  0  0  0  0
    7.3548    4.2905   56.0256 C   0  0  0  0  0
    1.8833    6.4548   56.2789 C   0  0  0  0  0
    1.9736    7.1983   57.6139 C   0  0  0  0  0
    1.9502    6.1931   58.7673 C   0  0  0  0  0
    0.3385    5.9146   54.7509 C   0  0  0  0  0
   -0.6668    7.0162   54.4180 C   0  0  0  0  0
    0.0037    8.3845   54.3649 C   0  0  0  0  0
    0.8932    8.5155   53.1308 C   0  0  0  0  0
    0.0668    8.5478   51.8523 C   0  0  0  0  0
   -0.5904    9.9076   51.6759 C   0  0  0  0  0
   -1.4822    9.9115   50.4459 C   0  0  0  0  0
   -0.6623    9.8847   49.1643 C   0  0  0  0  0
   -0.0167   11.2324   48.8863 C   0  0  0  0  0
   -1.0529   12.2197   48.3839 C   0  0  0  0  0
   -0.3711   13.5296   48.0356 C   0  0  0  0  0
   -1.3717   14.5294   47.4858 C   0  0  0  0  0
   -1.8197   14.1235   46.0890 C   0  0  0  0  0
   -2.7264   15.1878   45.4893 C   0  0  0  0  0
   -3.0261   14.8682   44.0331 C   0  0  0  0  0
   -1.8277   15.0694   43.1692 C   0  0  0  0  0
    3.8380    6.1482   62.8447 O   0  0  0  0  0
    2.4770    4.2959   62.5529 O   0  0  0  0  0
    7.7956    3.3915   59.8076 O   0  0  0  0  0
    5.0442    3.8558   60.0234 O   0  0  0  0  0
    2.8030    4.0610   59.4946 O   0  0  0  0  0
    5.0967    3.8352   56.9485 O   0  0  0  0  0
    5.5966    3.3344   54.7503 O   0  0  0  0  0
    2.9220    5.4987   56.1478 O   0  0  0  0  0
    2.1829    6.8422   59.9796 O   0  0  0  0  0
    3.1462    7.9589   57.6477 O   0  0  0  0  0
    0.6158    5.8731   56.1235 O   0  0  0  0  0
   -1.3147   16.2134   43.0498 O   0  0  0  0  0
   -1.2877   13.9908   42.4780 O   0  0  0  0  0
   -3.9265   15.2369   46.1991 O   0  0  0  0  0
   -1.7019    7.0345   55.3541 O   0  0  0  0  0
    7.0112    2.9479   62.4906 O   0  0  0  0  0
    4.3564    2.9465   63.9271 O   0  0  0  0  0
    2.2481    8.5084   63.3037 O   0  0  0  0  0
  1  2  1  0  0  0
  2  3  1  0  0  0
  3  4  1  0  0  0
  4  5  1  0  0  0
  5  6  1  0  0  0
  6  7  1  0  0  0
  6 56  1  0  0  0
  7  8  1  0  0  0
  8 40  1  0  0  0
  9 40  1  0  0  0
  9 10  1  0  0  0
 10 11  1  0  0  0
 10 55  1  0  0  0
 11 12  1  0  0  0
 11 54  1  0  0  0
 12 13  1  0  0  0
 12 42  1  0  0  0
 13 41  1  0  0  0
 14 42  1  0  0  0
 14 43  1  0  0  0
 14  9  1  0  0  0
 15 43  1  0  0  0
 15 16  1  0  0  0
 16 17  1  0  0  0
 16 46  1  0  0  0
 17 44  1  0  0  0
 18 44  1  0  0  0
 19 18  1  0  0  0
 20 46  1  0  0  0
 20 21  1  0  0  0
 20 49  1  0  0  0
 21 22  1  0  0  0
 21 48  1  0  0  0
 22 47  1  0  0  0
 22 15  1  0  0  0
 23 49  1  0  0  0
 23 24  1  0  0  0
 24 25  1  0  0  0
 24 53  1  0  0  0
 25 26  1  0  0  0
 26 27  1  0  0  0
 27 28  1  0  0  0
 28 29  1  0  0  0
 29 30  1  0  0  0
 30 31  1  0  0  0
 31 32  1  0  0  0
 32 33  1  0  0  0
 33 34  1  0  0  0
 34 35  1  0  0  0
 35 36  1  0  0  0
 36 37  1  0  0  0
 36 52  1  0  0  0
 37 38  1  0  0  0
 38 51  1  0  0  0
  8 39  2  0  0  0
 18 45  2  0  0  0
 38 50  2  0  0  0
M  END
> <rmsd>
0.448981047

$$$$
MolPort-044-637-491 MCULE-3504401803 PubChem-132331223


 56 57  0  0  0  0  0  0  0  0999 V2000
   -1.6569   10.2394   66.4385 C   0  0  0  0  0
   -0.7416    9.3264   65.6568 C   0  0  0  0  0
    0.6377    9.3392   66.2857 C   0  0  0  0  0
    1.5454    8.3180   65.6228 C   0  0  0  0  0
    2.1289    8.8434   64.3156 C   0  0  0  0  0
    1.1361    8.7194   63.1636 C   0  0  0  0  0
    0.8149    7.2627   62.8119 C   0  0  0  0  0
    1.9674    6.4543   62.2909 C   0  0  0  0  0
    2.7186    4.2360   61.4069 C   0  0  0  0  0
    3.7734    3.8137   62.4546 C   0  0  0  0  0
    5.1414    4.5021   62.3156 C   0  0  0  0  0
    5.4190    4.9521   60.8605 C   0  0  0  0  0
    6.8873    4.9699   60.4520 C   0  0  0  0  0
    3.3395    4.7699   60.1086 C   0  0  0  0  0
    2.8942    5.3069   57.9816 C   0  0  0  0  0
    2.8913    4.5405   56.6512 C   0  0  0  0  0
    3.8414    3.3507   56.6967 C   0  0  0  0  0
    6.2007    3.5584   56.0327 C   0  0  0  0  0
    7.5687    4.0323   56.3499 C   0  0  0  0  0
    2.2508    6.3791   55.4015 C   0  0  0  0  0
    2.1682    7.3032   56.6189 C   0  0  0  0  0
    1.9082    6.4752   57.8790 C   0  0  0  0  0
    0.9409    5.6732   53.7284 C   0  0  0  0  0
    0.0619    6.7463   53.0874 C   0  0  0  0  0
    0.8051    8.0714   52.9590 C   0  0  0  0  0
    1.8847    7.9964   51.8819 C   0  0  0  0  0
    1.2745    7.8705   50.4926 C   0  0  0  0  0
    0.7277    9.2105   50.0264 C   0  0  0  0  0
    0.0437    9.0656   48.6776 C   0  0  0  0  0
    1.0537    8.8298   47.5642 C   0  0  0  0  0
    1.8069   10.1030   47.2148 C   0  0  0  0  0
    0.9181   11.0396   46.4188 C   0  0  0  0  0
    1.7161   12.2642   46.0118 C   0  0  0  0  0
    0.8706   13.2053   45.1736 C   0  0  0  0  0
    0.6286   12.6173   43.7908 C   0  0  0  0  0
   -0.1130   13.6120   42.9105 C   0  0  0  0  0
   -0.1948   13.0962   41.4822 C   0  0  0  0  0
    1.1345   13.1342   40.8081 C   0  0  0  0  0
    3.1205    6.9572   62.1790 O   0  0  0  0  0
    1.7253    5.1253   61.9229 O   0  0  0  0  0
    7.3552    3.6721   60.2397 O   0  0  0  0  0
    4.6335    4.2475   59.9344 O   0  0  0  0  0
    2.5189    4.4441   59.0210 O   0  0  0  0  0
    5.1716    3.7843   56.9420 O   0  0  0  0  0
    5.9860    2.9581   54.9452 O   0  0  0  0  0
    3.2442    5.3823   55.5749 O   0  0  0  0  0
    1.9805    7.2840   59.0130 O   0  0  0  0  0
    3.3599    8.0241   56.7411 O   0  0  0  0  0
    0.9945    5.8206   55.1205 O   0  0  0  0  0
    1.7208   14.2327   40.6196 O   0  0  0  0  0
    1.7183   11.9514   40.3689 O   0  0  0  0  0
   -1.4060   13.7997   43.3997 O   0  0  0  0  0
   -1.1059    6.9308   53.8290 O   0  0  0  0  0
    6.1327    3.6425   62.7921 O   0  0  0  0  0
    3.2876    3.9295   63.7588 O   0  0  0  0  0
    1.6075    9.4070   62.0435 O   0  0  0  0  0
  1  2  1  0  0  0
  2  3  1  0  0  0
  3  4  1  0  0  0
  4  5  1  0  0  0
  5  6  1  0  0  0
  6  7  1  0  0  0
  6 56  1  0  0  0
  7  8  1  0  0  0
  8 40  1  0  0  0
  9 40  1  0  0  0
  9 10  1  0  0  0
 10 11  1  0  0  0
 10 55  1  0  0  0
 11 12  1  0  0  0
 11 54  1  0  0  0
 12 13  1  0  0  0
 12 42  1  0  0  0
 13 41  1  0  0  0
 14 42  1  0  0  0
 14 43  1  0  0  0
 14  9  1  0  0  0
 15 43  1  0  0  0
 15 16  1  0  0  0
 16 17  1  0  0  0
 16 46  1  0  0  0
 17 44  1  0  0  0
 18 44  1  0  0  0
 19 18  1  0  0  0
 20 46  1  0  0  0
 20 21  1  0  0  0
 20 49  1  0  0  0
 21 22  1  0  0  0
 21 48  1  0  0  0
 22 47  1  0  0  0
 22 15  1  0  0  0
 23 49  1  0  0  0
 23 24  1  0  0  0
 24 25  1  0  0  0
 24 53  1  0  0  0
 25 26  1  0  0  0
 26 27  1  0  0  0
 27 28  1  0  0  0
 28 29  1  0  0  0
 29 30  1  0  0  0
 30 31  1  0  0  0
 31 32  1  0  0  0
 32 33  1  0  0  0
 33 34  1  0  0  0
 34 35  1  0  0  0
 35 36  1  0  0  0
 36 37  1  0  0  0
 36 52  1  0  0  0
 37 38  1  0  0  0
 38 51  1  0  0  0
  8 39  2  0  0  0
 18 45  2  0  0  0
 38 50  2  0  0  0
M  END
> <rmsd>
0.65817821

$$$$
MolPort-000-768-476 79204555 LN00355832 MCULE-2599180961 PubChem-16397206 ZINC000079204555


 47 51  0  0  0  0  0  0  0  0999 V2000
   -1.1661   10.1478   48.1160 C   0  0  0  0  0
   -1.1419   10.9971   46.8896 C   0  0  0  0  0
    0.0550   11.2121   46.1924 C   0  0  0  0  0
    0.0853   12.0309   45.0622 C   0  0  0  0  0
   -1.0794   12.6406   44.5845 C   0  0  0  0  0
   -2.3100   12.4062   45.2607 C   0  0  0  0  0
   -3.9503   13.1999   43.5484 C   0  0  0  0  0
   -3.1435   14.3051   42.9245 C   0  0  0  0  0
   -1.8460   13.7074   42.4425 C   0  0  0  0  0
   -2.3112   11.6102   46.4132 C   0  0  0  0  0
   -2.2282    9.2468   48.3778 C   0  0  0  0  0
   -3.3643    9.0592   47.4262 C   0  0  0  0  0
   -1.2704    8.5601   50.3924 C   0  0  0  0  0
   -0.1662    9.4120   50.2099 C   0  0  0  0  0
    0.8519    9.4377   51.1730 C   0  0  0  0  0
    0.7650    8.6267   52.3086 C   0  0  0  0  0
   -0.3422    7.7830   52.4946 C   0  0  0  0  0
   -1.3538    7.7559   51.5325 C   0  0  0  0  0
    0.5453    6.8315   54.6080 C   0  0  0  0  0
    2.4299    5.6857   55.1717 C   0  0  0  0  0
    3.4630    4.6932   54.6643 C   0  0  0  0  0
    5.8163    4.1378   55.1332 C   0  0  0  0  0
    7.1304    4.5472   55.6888 C   0  0  0  0  0
    1.9222    5.2867   56.5645 C   0  0  0  0  0
    0.9673    6.3780   57.0333 C   0  0  0  0  0
    0.7103    6.7076   59.4571 C   0  0  0  0  0
   -0.0214    6.4081   60.7127 C   0  0  0  0  0
   -0.1105    6.6555   55.9852 C   0  0  0  0  0
   -2.2367    7.9099   56.5240 C   0  0  0  0  0
   -2.9029    9.1911   56.8845 C   0  0  0  0  0
    3.2372    3.9706   58.1595 C   0  0  0  0  0
    3.6620    2.7617   57.3906 C   0  0  0  0  0
   -0.1207   10.2191   49.0674 C   0  0  0  0  0
   -3.5382   12.9720   44.8902 O   0  0  0  0  0
   -0.9274   13.5291   43.5123 O   0  0  0  0  0
   -2.2367    8.5146   49.4855 O   0  0  0  0  0
   -0.4763    6.9782   53.6285 O   0  0  0  0  0
    1.3396    5.7133   54.2818 O   0  0  0  0  0
    4.7361    5.0196   55.2055 O   0  0  0  0  0
    5.6803    2.9843   54.6393 O   0  0  0  0  0
    0.3716    6.0286   58.2786 O   0  0  0  0  0
    1.6437    7.5570   59.4723 O   0  0  0  0  0
   -2.9294    6.8621   56.3844 O   0  0  0  0  0
    2.9891    5.1795   57.5009 O   0  0  0  0  0
    3.1204    3.8998   59.4165 O   0  0  0  0  0
    0.8440   11.0158   48.9043 O   0  0  0  0  0
   -0.8187    7.8805   56.3450 N   0  0  0  0  0
  1  2  1  0  0  0
  3  4  1  0  0  0
  5  6  1  0  0  0
  5 35  1  0  0  0
  6 34  1  0  0  0
  7 34  1  0  0  0
  7  8  1  0  0  0
  8  9  1  0  0  0
  9 35  1  0  0  0
 10  2  1  0  0  0
 11 36  1  0  0  0
 12 11  1  0  0  0
 13 36  1  0  0  0
 14 15  1  0  0  0
 14 33  1  0  0  0
 16 17  1  0  0  0
 17 37  1  0  0  0
 18 13  1  0  0  0
 19 37  1  0  0  0
 19 38  1  0  0  0
 20 38  1  0  0  0
 20 21  1  0  0  0
 20 24  1  0  0  0
 21 39  1  0  0  0
 22 39  1  0  0  0
 23 22  1  0  0  0
 24 25  1  0  0  0
 24 44  1  0  0  0
 25 41  1  0  0  0
 25 28  1  0  0  0
 26 41  1  0  0  0
 27 26  1  0  0  0
 28 47  1  0  0  0
 28 19  1  0  0  0
 30 29  1  0  0  0
 31 44  1  0  0  0
 32 31  1  0  0  0
 33  1  1  0  0  0
 47 29  1  0  0  0
  1 11  2  0  0  0
  2  3  2  0  0  0
  4  5  2  0  0  0
  6 10  2  0  0  0
 13 14  2  0  0  0
 15 16  2  0  0  0
 17 18  2  0  0  0
 22 40  2  0  0  0
 26 42  2  0  0  0
 29 43  2  0  0  0
 31 45  2  0  0  0
 33 46  2  0  0  0
M  END
> <rmsd>
0.685926855

$$$$
MolPort-000-768-405 LN01795623 MCULE-2477968966


 67 68  0  0  0  0  0  0  0  0999 V2000
    2.2096    9.4311   40.0380 C   0  0  0  0  0
    2.2903    8.0678   40.7050 C   0  0  0  0  0
    2.3814    6.9980   39.6278 C   0  0  0  0  0
    1.0554    7.8120   41.5648 C   0  0  0  0  0
    1.1319    8.4571   42.9574 C   0  0  0  0  0
    2.8019    6.7998   43.9173 C   0  0  0  0  0
    4.2297    6.4828   44.2362 C   0  0  0  0  0
    5.2170    7.4944   43.6547 C   0  0  0  0  0
    6.6071    6.9574   43.6715 C   0  0  0  0  0
    6.9649    5.8841   42.8450 C   0  0  0  0  0
    8.2721    5.3944   42.8634 C   0  0  0  0  0
    9.2268    5.9733   43.7073 C   0  0  0  0  0
    8.8711    7.0471   44.5323 C   0  0  0  0  0
    7.5635    7.5393   44.5109 C   0  0  0  0  0
    4.3929    7.3059   46.6613 C   0  0  0  0  0
    4.9278    7.0095   48.0186 C   0  0  0  0  0
    4.2719    8.8440   49.6278 C   0  0  0  0  0
    3.5086    9.2585   50.8458 C   0  0  0  0  0
    2.0847    9.6039   50.4646 C   0  0  0  0  0
    4.6742    7.7602   52.5216 C   0  0  0  0  0
    4.7247    6.3842   53.1211 C   0  0  0  0  0
    3.3456    5.8953   53.6015 C   0  0  0  0  0
    3.0559    6.1435   55.0495 C   0  0  0  0  0
    2.9646    7.4392   55.5747 C   0  0  0  0  0
    2.6553    7.6235   56.9289 C   0  0  0  0  0
    2.4284    6.5178   57.7659 C   0  0  0  0  0
    1.7992    5.7404   60.0580 C   0  0  0  0  0
    0.7576    7.3728   61.6525 C   0  0  0  0  0
    1.9549    8.2935   61.7983 C   0  0  0  0  0
   -0.2250    7.9510   60.6549 C   0  0  0  0  0
    0.0623    7.2682   62.9943 C   0  0  0  0  0
    2.5254    5.2241   57.2267 C   0  0  0  0  0
    2.8355    5.0402   55.8781 C   0  0  0  0  0
    6.2453    5.0356   54.6563 C   0  0  0  0  0
    7.8940    3.8767   56.1542 C   0  0  0  0  0
    6.8885    3.1705   57.0478 C   0  0  0  0  0
    8.3922    2.9248   55.0810 C   0  0  0  0  0
    9.0774    4.3000   57.0003 C   0  0  0  0  0
    0.8999    9.9370   42.8867 C   0  0  0  0  0
   -0.5225   11.8273   41.9858 C   0  0  0  0  0
   -1.2703   11.9660   40.6740 C   0  0  0  0  0
   -0.2764   12.0131   39.5230 C   0  0  0  0  0
   -0.9514   11.6993   38.1946 C   0  0  0  0  0
    0.0896   11.6099   37.0912 C   0  0  0  0  0
   -1.7669   14.0916   37.6763 C   0  0  0  0  0
   -1.2944   12.4650   43.0958 C   0  0  0  0  0
    2.3971    8.1402   43.6171 N   0  0  0  0  0
    4.4382    6.2780   45.6704 N   0  0  0  0  0
    4.0638    7.5450   49.0621 N   0  0  0  0  0
    3.4972    8.1796   51.8222 N   0  0  0  0  0
    5.7599    6.2810   54.1490 N   0  0  0  0  0
   -0.2870   10.4199   42.2540 N   0  0  0  0  0
   -1.9831   12.6833   37.8539 N   0  0  0  0  0
   -2.8541   14.9234   37.2862 N   0  0  0  0  0
   -0.6199   14.6261   37.9330 N   0  0  0  0  0
    1.9644    5.8599   43.8733 O   0  0  0  0  0
    3.9885    8.4640   46.3702 O   0  0  0  0  0
    5.0964    9.6437   49.1116 O   0  0  0  0  0
    5.7084    8.4892   52.5119 O   0  0  0  0  0
    2.0728    6.7413   59.1075 O   0  0  0  0  0
    2.1443    4.5440   59.8636 O   0  0  0  0  0
    1.1725    6.0630   61.2650 O   0  0  0  0  0
    5.7316    3.9458   54.2742 O   0  0  0  0  0
    7.3090    5.0448   55.5701 O   0  0  0  0  0
    1.7481   10.7468   43.3497 O   0  0  0  0  0
   -1.9483   11.6899   44.0477 O   0  0  0  0  0
   -1.3658   13.7177   43.1622 O   0  0  0  0  0
  1  2  1  0  0  0
  2  3  1  0  0  0
  2  4  1  0  0  0
  5  4  1  0  0  0
  5 47  1  0  0  0
  5 39  1  0  0  0
  7  6  1  0  0  0
  7  8  1  0  0  0
  7 48  1  0  0  0
  8  9  1  0  0  0
 10 11  1  0  0  0
 12 13  1  0  0  0
 14  9  1  0  0  0
 16 15  1  0  0  0
 16 49  1  0  0  0
 18 17  1  0  0  0
 18 19  1  0  0  0
 18 50  1  0  0  0
 21 20  1  0  0  0
 21 22  1  0  0  0
 21 51  1  0  0  0
 22 23  1  0  0  0
 24 25  1  0  0  0
 26 60  1  0  0  0
 26 32  1  0  0  0
 27 60  1  0  0  0
 27 62  1  0  0  0
 28 62  1  0  0  0
 28 29  1  0  0  0
 28 30  1  0  0  0
 28 31  1  0  0  0
 33 23  1  0  0  0
 34 64  1  0  0  0
 35 64  1  0  0  0
 35 36  1  0  0  0
 35 37  1  0  0  0
 35 38  1  0  0  0
 39 52  1  0  0  0
 40 52  1  0  0  0
 40 41  1  0  0  0
 40 46  1  0  0  0
 41 42  1  0  0  0
 43 42  1  0  0  0
 43 44  1  0  0  0
 43 53  1  0  0  0
 45 54  1  0  0  0
 46 66  1  0  0  0
 47  6  1  0  0  0
 48 15  1  0  0  0
 49 17  1  0  0  0
 50 20  1  0  0  0
 51 34  1  0  0  0
 53 45  1  0  0  0
  6 56  2  0  0  0
  9 10  2  0  0  0
 11 12  2  0  0  0
 13 14  2  0  0  0
 15 57  2  0  0  0
 17 58  2  0  0  0
 20 59  2  0  0  0
 23 24  2  0  0  0
 25 26  2  0  0  0
 27 61  2  0  0  0
 32 33  2  0  0  0
 34 63  2  0  0  0
 39 65  2  0  0  0
 45 55  2  0  0  0
 46 67  2  0  0  0
M  END
> <rmsd>
0.818822622

$$$$
MolPort-046-697-279 MCULE-3552819464


 53 57  0  0  0  0  0  0  0  0999 V2000
   -0.9596   13.2980   41.8209 C   0  0  0  0  0
   -0.7954   15.2827   43.0156 C   0  0  0  0  0
   -1.5554   16.5691   43.2700 C   0  0  0  0  0
    0.4594   15.6934   42.2418 C   0  0  0  0  0
   -0.4551   14.6830   44.4029 C   0  0  0  0  0
    0.5972   13.5775   44.3705 C   0  0  0  0  0
    2.0147   14.1248   44.5625 C   0  0  0  0  0
    2.3852   14.4388   46.0237 C   0  0  0  0  0
    1.6407   15.7052   46.4487 C   0  0  0  0  0
    1.9969   13.2747   46.9751 C   0  0  0  0  0
    2.5458   11.9242   46.5046 C   0  0  0  0  0
    2.9471   11.1360   47.7343 C   0  0  0  0  0
    2.9639   12.1191   48.8534 C   0  0  0  0  0
    3.3884   11.7869   50.0937 C   0  0  0  0  0
    3.4196   12.7886   51.2223 C   0  0  0  0  0
    2.7900   12.1985   52.4857 C   0  0  0  0  0
    3.4519   10.8581   52.8027 C   0  0  0  0  0
    3.9330    9.3493   54.4709 C   0  0  0  0  0
    4.7086    8.5807   53.3600 C   0  0  0  0  0
    3.9260    8.5083   52.0431 C   0  0  0  0  0
    3.2684    9.8395   51.6614 C   0  0  0  0  0
    1.7893    9.5563   51.4121 C   0  0  0  0  0
    3.9050   10.3956   50.3861 C   0  0  0  0  0
    3.2908    8.3901   55.4871 C   0  0  0  0  0
    2.1368    7.6435   54.8050 C   0  0  0  0  0
    2.7368    9.2277   56.6373 C   0  0  0  0  0
    3.7467    6.5340   56.8155 C   0  0  0  0  0
    3.3835    5.9575   59.0198 C   0  0  0  0  0
    1.8824    6.2582   59.0168 C   0  0  0  0  0
    3.7201    4.4769   58.7705 C   0  0  0  0  0
    3.5589    4.0860   57.2964 C   0  0  0  0  0
    4.2058    5.1343   56.3880 C   0  0  0  0  0
    6.3893    3.9328   55.9175 C   0  0  0  0  0
    7.8686    3.8929   56.0591 C   0  0  0  0  0
    2.4416   13.4679   48.4399 C   0  0  0  0  0
    1.2182   13.8429   49.2623 C   0  0  0  0  0
    3.5176   14.5565   48.6014 C   0  0  0  0  0
    4.5489   14.5104   47.4757 C   0  0  0  0  0
    3.9145   14.6764   46.0851 C   0  0  0  0  0
   -2.1253   14.7412   46.2141 C   0  0  0  0  0
   -3.3083   14.1285   46.8708 C   0  0  0  0  0
   -1.6491   14.4428   42.2538 O   0  0  0  0  0
    2.9839   10.3058   54.0056 O   0  0  0  0  0
    4.2986    7.5057   55.9568 O   0  0  0  0  0
    4.1137    6.8076   58.1530 O   0  0  0  0  0
    1.6592    7.5515   59.4886 O   0  0  0  0  0
    2.9750    3.6368   59.6018 O   0  0  0  0  0
    2.2097    3.9400   56.9632 O   0  0  0  0  0
    5.7931    2.9939   55.3246 O   0  0  0  0  0
    4.2743   15.9076   45.5290 O   0  0  0  0  0
   -1.6296   14.1863   45.0342 O   0  0  0  0  0
   -1.5911   15.7613   46.7242 O   0  0  0  0  0
    5.6597    5.0385   56.4502 N   0  0  0  0  0
  1 42  1  0  0  0
  2 42  1  0  0  0
  2  3  1  0  0  0
  2  4  1  0  0  0
  2  5  1  0  0  0
  5  6  1  0  0  0
  5 51  1  0  0  0
  6  7  1  0  0  0
  7  8  1  0  0  0
  8  9  1  0  0  0
  8 10  1  0  0  0
 10 11  1  0  0  0
 11 12  1  0  0  0
 12 13  1  0  0  0
 15 14  1  0  0  0
 15 16  1  0  0  0
 16 17  1  0  0  0
 17 43  1  0  0  0
 18 43  1  0  0  0
 18 19  1  0  0  0
 18 24  1  0  0  0
 19 20  1  0  0  0
 20 21  1  0  0  0
 21 22  1  0  0  0
 21 23  1  0  0  0
 21 17  1  0  0  0
 23 14  1  0  0  0
 24 25  1  0  0  0
 24 26  1  0  0  0
 24 44  1  0  0  0
 27 44  1  0  0  0
 27 45  1  0  0  0
 28 45  1  0  0  0
 28 29  1  0  0  0
 28 30  1  0  0  0
 29 46  1  0  0  0
 30 47  1  0  0  0
 30 31  1  0  0  0
 31 48  1  0  0  0
 31 32  1  0  0  0
 32 53  1  0  0  0
 32 27  1  0  0  0
 34 33  1  0  0  0
 35 13  1  0  0  0
 35 36  1  0  0  0
 35 37  1  0  0  0
 35 10  1  0  0  0
 37 38  1  0  0  0
 38 39  1  0  0  0
 39 50  1  0  0  0
 39  8  1  0  0  0
 40 51  1  0  0  0
 41 40  1  0  0  0
 53 33  1  0  0  0
 13 14  2  0  0  0
 33 49  2  0  0  0
 40 52  2  0  0  0
M  END
> <rmsd>
0.662602365

$$$$
MolPort-006-536-879 ChemDiv-V007-4589 MCULE-1787605113 PubChem-46002674 ZINC000103094680


 45 50  0  0  0  0  0  0  0  0999 V2000
   -2.2117   14.6280   43.2788 C   0  0  0  0  0
   -0.4257   13.0297   43.8946 C   0  0  0  0  0
   -0.5498   13.3116   45.2595 C   0  0  0  0  0
    0.2606   12.6573   46.1870 C   0  0  0  0  0
    1.2139   11.7070   45.7793 C   0  0  0  0  0
    1.3411   11.4225   44.3969 C   0  0  0  0  0
    2.4464   10.1518   42.5759 C   0  0  0  0  0
    0.5166   12.0904   43.4744 C   0  0  0  0  0
    2.0438   11.0317   46.8164 C   0  0  0  0  0
    1.9399   11.4008   48.1631 C   0  0  0  0  0
    2.7157   10.7518   49.1183 C   0  0  0  0  0
    3.5894    9.7370   48.7184 C   0  0  0  0  0
    5.3444    8.0116   49.2408 C   0  0  0  0  0
    5.1709    6.7586   50.0928 C   0  0  0  0  0
    4.2178    8.1462   51.9483 C   0  0  0  0  0
    4.3820    9.4011   51.0953 C   0  0  0  0  0
    6.0899    6.5205   52.4227 C   0  0  0  0  0
    6.0400    6.8345   53.8845 C   0  0  0  0  0
    3.8098    6.0579   54.6845 C   0  0  0  0  0
    3.4059    6.2556   56.1055 C   0  0  0  0  0
    3.6171    7.5055   56.7305 C   0  0  0  0  0
    3.2609    7.6998   58.0777 C   0  0  0  0  0
    2.7033    6.6185   58.7567 C   0  0  0  0  0
    1.7877    5.2300   60.3128 C   0  0  0  0  0
    2.5040    5.4158   58.1587 C   0  0  0  0  0
    2.8433    5.1864   56.8282 C   0  0  0  0  0
    5.8064    4.5563   54.9585 C   0  0  0  0  0
    7.2363    4.3938   55.3107 C   0  0  0  0  0
    8.0380    5.5003   55.6293 C   0  0  0  0  0
    9.3813    5.3287   55.9771 C   0  0  0  0  0
    9.9344    4.0466   56.0160 C   0  0  0  0  0
    9.1441    2.9360   55.7073 C   0  0  0  0  0
    7.8010    3.1092   55.3587 C   0  0  0  0  0
   -1.2231   13.6642   42.9381 O   0  0  0  0  0
    2.2798   10.4854   43.9475 O   0  0  0  0  0
    6.9372    5.6847   52.0080 O   0  0  0  0  0
    2.2796    6.5555   60.0689 O   0  0  0  0  0
    1.9483    4.5374   59.0663 O   0  0  0  0  0
    5.0542    3.5433   54.9895 O   0  0  0  0  0
    3.6542    9.4106   47.3987 N   0  0  0  0  0
    2.9104   10.0353   46.4838 N   0  0  0  0  0
    4.3961    9.0351   49.6783 N   0  0  0  0  0
    5.1692    7.1293   51.5057 N   0  0  0  0  0
    5.2480    5.8340   54.5913 N   0  0  0  0  0
   10.1465    6.4055   56.2734 F   0  0  0  0  0
  1 34  1  0  0  0
  2 34  1  0  0  0
  3  4  1  0  0  0
  5  6  1  0  0  0
  5  9  1  0  0  0
  6 35  1  0  0  0
  7 35  1  0  0  0
  8  2  1  0  0  0
  9 41  1  0  0  0
 10 11  1  0  0  0
 12 40  1  0  0  0
 12 42  1  0  0  0
 13 42  1  0  0  0
 13 14  1  0  0  0
 14 43  1  0  0  0
 15 43  1  0  0  0
 15 16  1  0  0  0
 16 42  1  0  0  0
 18 17  1  0  0  0
 18 44  1  0  0  0
 19 44  1  0  0  0
 19 20  1  0  0  0
 21 22  1  0  0  0
 23 37  1  0  0  0
 24 37  1  0  0  0
 24 38  1  0  0  0
 25 38  1  0  0  0
 25 23  1  0  0  0
 26 20  1  0  0  0
 27 28  1  0  0  0
 29 30  1  0  0  0
 30 45  1  0  0  0
 31 32  1  0  0  0
 33 28  1  0  0  0
 43 17  1  0  0  0
 44 27  1  0  0  0
  2  3  2  0  0  0
  4  5  2  0  0  0
  6  8  2  0  0  0
  9 10  2  0  0  0
 11 12  2  0  0  0
 17 36  2  0  0  0
 20 21  2  0  0  0
 22 23  2  0  0  0
 25 26  2  0  0  0
 27 39  2  0  0  0
 28 29  2  0  0  0
 30 31  2  0  0  0
 32 33  2  0  0  0
 40 41  2  0  0  0
M  END
> <rmsd>
0.624813616

$$$$
MolPort-047-913-191


 58 63  0  0  0  0  0  0  0  0999 V2000
   -3.8553   15.0708   44.1775 C   0  0  0  0  0
   -2.6899   14.8738   45.1279 C   0  0  0  0  0
   -2.6423   16.0264   46.1129 C   0  0  0  0  0
    0.1932   14.5919   45.3311 C   0  0  0  0  0
    0.2474   13.5105   46.2352 C   0  0  0  0  0
   -0.9212   11.3669   47.0680 C   0  0  0  0  0
   -0.1787   10.0679   48.9123 C   0  0  0  0  0
    0.6538    8.7642   50.9173 C   0  0  0  0  0
   -0.4663    8.9754   51.9346 C   0  0  0  0  0
   -0.4560    7.8557   52.9738 C   0  0  0  0  0
    0.9356    7.7428   53.5954 C   0  0  0  0  0
    3.2173    7.3639   53.2076 C   0  0  0  0  0
    4.0153    6.2023   52.6253 C   0  0  0  0  0
    4.4212    6.4791   51.1781 C   0  0  0  0  0
    5.5488    7.5069   51.1146 C   0  0  0  0  0
    6.8994    6.8239   51.2686 C   0  0  0  0  0
    7.2832    6.1460   49.9617 C   0  0  0  0  0
    8.5682    5.3549   50.1261 C   0  0  0  0  0
    9.0559    3.8955   52.1208 C   0  0  0  0  0
    8.6939    2.7136   52.9527 C   0  0  0  0  0
    7.9166    3.7471   55.0739 C   0  0  0  0  0
    6.8605    4.0918   55.9210 C   0  0  0  0  0
    5.4193    3.8809   55.7931 C   0  0  0  0  0
    3.2972    4.6260   57.0259 C   0  0  0  0  0
    2.8999    5.9947   56.4557 C   0  0  0  0  0
    3.2239    7.1370   57.4164 C   0  0  0  0  0
    2.5932    6.8878   58.7542 C   0  0  0  0  0
    2.7887    4.4273   58.4305 C   0  0  0  0  0
    5.7812    4.9762   57.7397 C   0  0  0  0  0
    7.0768    4.7632   57.1070 C   0  0  0  0  0
    8.3546    5.1388   57.5169 C   0  0  0  0  0
    9.4356    4.8042   56.6830 C   0  0  0  0  0
    9.2202    4.1122   55.4734 C   0  0  0  0  0
    1.9810    8.6192   51.6568 C   0  0  0  0  0
   -2.0077    9.2991   47.6213 C   0  0  0  0  0
   -1.9215   10.4247   46.8040 C   0  0  0  0  0
    1.3449   13.4023   47.1055 C   0  0  0  0  0
    2.3735   14.3483   47.0794 C   0  0  0  0  0
    2.3179   15.4146   46.1802 C   0  0  0  0  0
    1.2316   15.5345   45.3093 C   0  0  0  0  0
   -1.1600   14.7828   44.2162 S   0  0  0  0  0
   -0.9841   16.0468   43.4183 O   0  0  0  0  0
   -1.1940   13.6128   43.2747 O   0  0  0  0  0
   10.0069    4.6434   52.4737 O   0  0  0  0  0
    7.6687    3.0583   53.8807 O   0  0  0  0  0
    4.8397    3.3391   54.8138 O   0  0  0  0  0
    2.2047    7.8583   59.4560 O   0  0  0  0  0
    2.6523    3.2638   58.8877 O   0  0  0  0  0
    5.5928    5.5739   58.8326 O   0  0  0  0  0
   -0.7998   12.5252   46.2285 N   0  0  0  0  0
   -0.0770   11.1676   48.1202 N   0  0  0  0  0
    0.7228    9.9002   50.0086 N   0  0  0  0  0
    1.9226    7.4639   52.5536 N   0  0  0  0  0
    8.3181    4.1677   50.9284 N   0  0  0  0  0
    4.7411    4.4051   56.9355 N   0  0  0  0  0
    2.4418    5.5530   59.2437 N   0  0  0  0  0
   -1.1389    9.1379   48.6549 N   0  0  0  0  0
   -3.0524   10.6240   45.4741 Cl  0  0  0  0  0
  1  2  1  0  0  0
  2  3  1  0  0  0
  2 41  1  0  0  0
  5 50  1  0  0  0
  5 37  1  0  0  0
  7 51  1  0  0  0
  7 52  1  0  0  0
  8 52  1  0  0  0
  8  9  1  0  0  0
  9 10  1  0  0  0
 10 11  1  0  0  0
 11 53  1  0  0  0
 12 53  1  0  0  0
 12 13  1  0  0  0
 13 14  1  0  0  0
 14 15  1  0  0  0
 15 16  1  0  0  0
 16 17  1  0  0  0
 17 18  1  0  0  0
 18 54  1  0  0  0
 20 19  1  0  0  0
 20 45  1  0  0  0
 21 45  1  0  0  0
 22 23  1  0  0  0
 23 55  1  0  0  0
 24 55  1  0  0  0
 24 25  1  0  0  0
 24 28  1  0  0  0
 25 26  1  0  0  0
 26 27  1  0  0  0
 27 56  1  0  0  0
 29 30  1  0  0  0
 30 22  1  0  0  0
 31 32  1  0  0  0
 33 21  1  0  0  0
 34 53  1  0  0  0
 34  8  1  0  0  0
 35 57  1  0  0  0
 36 58  1  0  0  0
 36  6  1  0  0  0
 38 39  1  0  0  0
 40  4  1  0  0  0
 41  4  1  0  0  0
 50  6  1  0  0  0
 54 19  1  0  0  0
 55 29  1  0  0  0
 56 28  1  0  0  0
  4  5  2  0  0  0
  6 51  2  0  0  0
  7 57  2  0  0  0
 19 44  2  0  0  0
 21 22  2  0  0  0
 23 46  2  0  0  0
 27 47  2  0  0  0
 28 48  2  0  0  0
 29 49  2  0  0  0
 30 31  2  0  0  0
 32 33  2  0  0  0
 35 36  2  0  0  0
 37 38  2  0  0  0
 39 40  2  0  0  0
 41 42  2  0  0  0
 41 43  2  0  0  0
M  END
> <rmsd>
0.682399869

$$$$
MolPort-047-913-191


 58 63  0  0  0  0  0  0  0  0999 V2000
   -4.3421   13.1399   43.4678 C   0  0  0  0  0
   -3.1634   13.0961   44.4212 C   0  0  0  0  0
   -3.1672   14.3427   45.2854 C   0  0  0  0  0
   -0.2688   12.9759   44.6219 C   0  0  0  0  0
   -0.1566   11.9947   45.6291 C   0  0  0  0  0
   -1.2138    9.8915   46.6840 C   0  0  0  0  0
   -0.3984    8.8217   48.6413 C   0  0  0  0  0
    0.5079    7.7678   50.7580 C   0  0  0  0  0
   -0.6157    8.0255   51.7605 C   0  0  0  0  0
   -0.5447    7.0177   52.9064 C   0  0  0  0  0
    0.8541    7.0353   53.5218 C   0  0  0  0  0
    3.1495    6.7303   53.1504 C   0  0  0  0  0
    4.0006    5.5561   52.6790 C   0  0  0  0  0
    4.3846    5.7055   51.2073 C   0  0  0  0  0
    5.4599    6.7752   51.0297 C   0  0  0  0  0
    6.8433    6.1773   51.2374 C   0  0  0  0  0
    7.2530    5.3909   50.0010 C   0  0  0  0  0
    8.5762    4.6835   50.2305 C   0  0  0  0  0
    9.1458    3.4571   52.3560 C   0  0  0  0  0
    8.8468    2.3485   53.3057 C   0  0  0  0  0
    8.0311    3.5510   55.3207 C   0  0  0  0  0
    6.9638    3.9275   56.1399 C   0  0  0  0  0
    5.5341    3.6352   56.0486 C   0  0  0  0  0
    3.3845    4.3967   57.2224 C   0  0  0  0  0
    2.9173    5.6804   56.5222 C   0  0  0  0  0
    3.1898    6.9277   57.3605 C   0  0  0  0  0
    2.5794    6.7838   58.7230 C   0  0  0  0  0
    2.8939    4.3156   58.6449 C   0  0  0  0  0
    5.8521    4.9367   57.8720 C   0  0  0  0  0
    7.1532    4.7242   57.2505 C   0  0  0  0  0
    8.4131    5.2005   57.6076 C   0  0  0  0  0
    9.5048    4.8366   56.8003 C   0  0  0  0  0
    9.3173    4.0170   55.6683 C   0  0  0  0  0
    1.8447    7.7622   51.4946 C   0  0  0  0  0
   -2.1943    7.8395   47.4525 C   0  0  0  0  0
   -2.1680    8.8802   46.5259 C   0  0  0  0  0
    0.9495   12.0276   46.4944 C   0  0  0  0  0
    1.9302   13.0149   46.3633 C   0  0  0  0  0
    1.8173   13.9816   45.3626 C   0  0  0  0  0
    0.7218   13.9607   44.4953 C   0  0  0  0  0
   -1.6357   12.9882   43.5074 S   0  0  0  0  0
   -1.5265   14.1727   42.5853 O   0  0  0  0  0
   -1.6172   11.7293   42.6881 O   0  0  0  0  0
   10.0608    4.2818   52.6225 O   0  0  0  0  0
    7.8110    2.7347   54.2050 O   0  0  0  0  0
    4.9766    2.9704   55.1343 O   0  0  0  0  0
    2.1474    7.8000   59.3280 O   0  0  0  0  0
    2.8175    3.1987   59.2176 O   0  0  0  0  0
    5.6404    5.6313   58.9015 O   0  0  0  0  0
   -1.1541   10.9641   45.7317 N   0  0  0  0  0
   -0.3552    9.8399   47.7422 N   0  0  0  0  0
    0.5161    8.8088   49.7395 N   0  0  0  0  0
    1.8479    6.7013   52.5030 N   0  0  0  0  0
    8.3892    3.5721   51.1500 N   0  0  0  0  0
    4.8371    4.2381   57.1397 N   0  0  0  0  0
    2.4965    5.4992   59.3450 N   0  0  0  0  0
   -1.3131    7.8251   48.4881 N   0  0  0  0  0
   -3.3144    8.8900   45.1944 Cl  0  0  0  0  0
  1  2  1  0  0  0
  2  3  1  0  0  0
  2 41  1  0  0  0
  5 50  1  0  0  0
  5 37  1  0  0  0
  7 51  1  0  0  0
  7 52  1  0  0  0
  8 52  1  0  0  0
  8  9  1  0  0  0
  9 10  1  0  0  0
 10 11  1  0  0  0
 11 53  1  0  0  0
 12 53  1  0  0  0
 12 13  1  0  0  0
 13 14  1  0  0  0
 14 15  1  0  0  0
 15 16  1  0  0  0
 16 17  1  0  0  0
 17 18  1  0  0  0
 18 54  1  0  0  0
 20 19  1  0  0  0
 20 45  1  0  0  0
 21 45  1  0  0  0
 22 23  1  0  0  0
 23 55  1  0  0  0
 24 55  1  0  0  0
 24 25  1  0  0  0
 24 28  1  0  0  0
 25 26  1  0  0  0
 26 27  1  0  0  0
 27 56  1  0  0  0
 29 30  1  0  0  0
 30 22  1  0  0  0
 31 32  1  0  0  0
 33 21  1  0  0  0
 34 53  1  0  0  0
 34  8  1  0  0  0
 35 57  1  0  0  0
 36 58  1  0  0  0
 36  6  1  0  0  0
 38 39  1  0  0  0
 40  4  1  0  0  0
 41  4  1  0  0  0
 50  6  1  0  0  0
 54 19  1  0  0  0
 55 29  1  0  0  0
 56 28  1  0  0  0
  4  5  2  0  0  0
  6 51  2  0  0  0
  7 57  2  0  0  0
 19 44  2  0  0  0
 21 22  2  0  0  0
 23 46  2  0  0  0
 27 47  2  0  0  0
 28 48  2  0  0  0
 29 49  2  0  0  0
 30 31  2  0  0  0
 32 33  2  0  0  0
 35 36  2  0  0  0
 37 38  2  0  0  0
 39 40  2  0  0  0
 41 42  2  0  0  0
 41 43  2  0  0  0
M  END
> <rmsd>
0.720417976

$$$$
MolPort-047-134-034


 38 42  0  0  0  0  0  0  0  0999 V2000
    3.5561    7.1057   52.0322 C   0  0  0  0  0
    3.1029    7.6226   50.8155 C   0  0  0  0  0
    3.8913    7.5211   49.6521 C   0  0  0  0  0
    5.1444    6.8828   49.7456 C   0  0  0  0  0
    5.5958    6.3689   50.9647 C   0  0  0  0  0
    4.8015    6.4779   52.1186 C   0  0  0  0  0
    6.4666    5.3380   53.5725 C   0  0  0  0  0
    6.5977    4.8899   55.0211 C   0  0  0  0  0
    7.9149    4.1654   55.2129 C   0  0  0  0  0
    6.5139    6.1096   55.9934 C   0  0  0  0  0
    4.6232    6.2662   57.7888 C   0  0  0  0  0
    3.6294    5.2961   57.9688 C   0  0  0  0  0
    4.8431    4.6341   56.4166 C   0  0  0  0  0
    4.1629    7.8424   47.1482 C   0  0  0  0  0
    3.2215    7.3219   46.0635 C   0  0  0  0  0
    2.0094    8.2411   45.9045 C   0  0  0  0  0
    1.2878    8.4068   47.2473 C   0  0  0  0  0
    2.2455    8.9189   48.3208 C   0  0  0  0  0
    1.5300   10.4548   44.8721 C   0  0  0  0  0
    0.1545   10.1954   44.7649 C   0  0  0  0  0
   -0.7062   11.1657   44.2455 C   0  0  0  0  0
   -0.2028   12.4074   43.8254 C   0  0  0  0  0
   -2.4458   13.2680   43.1437 C   0  0  0  0  0
    1.1684   12.6613   43.9310 C   0  0  0  0  0
    2.0297   11.6909   44.4507 C   0  0  0  0  0
    5.2126    5.9765   53.3592 O   0  0  0  0  0
    5.5049    4.0230   55.3802 O   0  0  0  0  0
    2.5226    6.4563   59.7983 O   0  0  0  0  0
    1.7397    4.4696   59.0367 O   0  0  0  0  0
    2.4201    9.5052   45.3857 O   0  0  0  0  0
   -1.0352   13.4043   43.3008 O   0  0  0  0  0
    5.3556    5.7726   56.7863 N   0  0  0  0  0
    3.7559    4.2507   57.1024 N   0  0  0  0  0
    2.5906    5.3780   58.9471 N   0  0  0  0  0
    3.4204    8.0509   48.3913 N   0  0  0  0  0
   -2.9547   14.4346   42.6069 F   0  0  0  0  0
   -3.0411   13.0411   44.3716 F   0  0  0  0  0
   -2.7282   12.2187   42.2881 F   0  0  0  0  0
  2  3  1  0  0  0
  3 35  1  0  0  0
  4  5  1  0  0  0
  6 26  1  0  0  0
  6  1  1  0  0  0
  7 26  1  0  0  0
  7  8  1  0  0  0
  8  9  1  0  0  0
  8 10  1  0  0  0
  8 27  1  0  0  0
 10 32  1  0  0  0
 12 33  1  0  0  0
 12 34  1  0  0  0
 13 27  1  0  0  0
 13 32  1  0  0  0
 14 35  1  0  0  0
 14 15  1  0  0  0
 15 16  1  0  0  0
 16 17  1  0  0  0
 16 30  1  0  0  0
 17 18  1  0  0  0
 18 35  1  0  0  0
 19 30  1  0  0  0
 20 21  1  0  0  0
 22 31  1  0  0  0
 22 24  1  0  0  0
 23 31  1  0  0  0
 23 36  1  0  0  0
 23 37  1  0  0  0
 23 38  1  0  0  0
 25 19  1  0  0  0
 32 11  1  0  0  0
 34 28  1  0  0  0
  1  2  2  0  0  0
  3  4  2  0  0  0
  5  6  2  0  0  0
 11 12  2  0  0  0
 13 33  2  0  0  0
 19 20  2  0  0  0
 21 22  2  0  0  0
 24 25  2  0  0  0
 34 29  2  0  0  0
M  CHG  2  34   1  28  -1
M  END
> <rmsd>
0.799888074

$$$$
MolPort-047-772-423


 56 61  0  0  0  0  0  0  0  0999 V2000
    7.4714    3.9743   56.1112 C   0  0  0  0  0
    6.6440    3.0807   55.1989 C   0  0  0  0  0
    4.5669    3.2639   56.1764 C   0  0  0  0  0
    3.7047    5.1716   56.9204 C   0  0  0  0  0
    2.8261    5.2623   58.1701 C   0  0  0  0  0
    2.9304    6.6429   58.8228 C   0  0  0  0  0
    2.8017    7.7318   57.7481 C   0  0  0  0  0
    2.9322    9.1105   58.3745 C   0  0  0  0  0
    3.4801    6.4117   56.0509 C   0  0  0  0  0
    3.5235    6.9129   53.8736 C   0  0  0  0  0
    2.6945    5.8479   53.1608 C   0  0  0  0  0
    1.7484    6.5331   52.1912 C   0  0  0  0  0
    2.5512    7.2727   51.1144 C   0  0  0  0  0
    3.6324    8.1727   51.6855 C   0  0  0  0  0
    4.0635    9.2321   50.9781 C   0  0  0  0  0
    3.3636    9.7483   49.7594 C   0  0  0  0  0
    2.5726    8.6759   48.9880 C   0  0  0  0  0
    1.7671    9.3571   47.8296 C   0  0  0  0  0
    2.7162   10.2441   47.0067 C   0  0  0  0  0
    1.2220    8.3430   46.8321 C   0  0  0  0  0
   -0.0407    8.9479   46.2337 C   0  0  0  0  0
   -0.3331   10.2274   47.0148 C   0  0  0  0  0
   -1.8506   10.5462   47.1066 C   0  0  0  0  0
   -2.1130   11.7538   47.9946 C   0  0  0  0  0
   -2.4230   10.8303   45.7134 C   0  0  0  0  0
   -1.7253   11.9524   45.0135 C   0  0  0  0  0
   -1.1483   11.7454   43.8291 C   0  0  0  0  0
   -0.4166   12.8273   43.0813 C   0  0  0  0  0
    0.7986   13.3103   43.8724 C   0  0  0  0  0
    0.1028   12.2172   41.7983 C   0  0  0  0  0
    0.5048   10.1451   48.3033 C   0  0  0  0  0
    0.8538   11.5450   48.8065 C   0  0  0  0  0
   -0.2943    9.4064   49.4033 C   0  0  0  0  0
    0.5847    8.7867   50.4396 C   0  0  0  0  0
    1.6863    7.8644   49.9706 C   0  0  0  0  0
    1.0648    6.6710   49.2504 C   0  0  0  0  0
    4.4275    7.6963   52.8969 C   0  0  0  0  0
    5.0122    8.8787   53.6645 C   0  0  0  0  0
    5.5797    6.8209   52.4150 C   0  0  0  0  0
    4.2346    1.7675   56.1993 C   0  0  0  0  0
    5.3296    0.9516   55.4918 C   0  0  0  0  0
    6.7022    1.6092   55.6521 C   0  0  0  0  0
    5.3264    3.5837   55.0329 O   0  0  0  0  0
    3.3897    4.0178   56.1950 O   0  0  0  0  0
    3.2149    4.2850   59.0872 O   0  0  0  0  0
    1.9129    6.7813   59.7659 O   0  0  0  0  0
    2.5752   10.0862   57.4417 O   0  0  0  0  0
    3.8098    7.5656   56.7819 O   0  0  0  0  0
    4.2798    6.3333   54.9034 O   0  0  0  0  0
   -2.5368    9.4526   47.6360 O   0  0  0  0  0
   -1.2783   13.8906   42.7315 O   0  0  0  0  0
   -1.5802   14.5553   43.8367 O   0  0  0  0  0
    0.4369    9.0805   51.6160 O   0  0  0  0  0
    4.0731    1.3509   57.5240 O   0  0  0  0  0
    5.3523   -0.3698   55.9419 O   0  0  0  0  0
    7.6522    0.9248   54.8976 O   0  0  0  0  0
  2  1  1  0  0  0
  2 43  1  0  0  0
  3 43  1  0  0  0
  3 44  1  0  0  0
  3 40  1  0  0  0
  4 44  1  0  0  0
  4  5  1  0  0  0
  5 45  1  0  0  0
  5  6  1  0  0  0
  6 46  1  0  0  0
  6  7  1  0  0  0
  7  8  1  0  0  0
  7 48  1  0  0  0
  8 47  1  0  0  0
  9 48  1  0  0  0
  9 49  1  0  0  0
  9  4  1  0  0  0
 10 49  1  0  0  0
 10 11  1  0  0  0
 11 12  1  0  0  0
 12 13  1  0  0  0
 13 14  1  0  0  0
 16 15  1  0  0  0
 16 17  1  0  0  0
 17 18  1  0  0  0
 18 19  1  0  0  0
 18 20  1  0  0  0
 20 21  1  0  0  0
 21 22  1  0  0  0
 22 23  1  0  0  0
 22 31  1  0  0  0
 23 24  1  0  0  0
 23 50  1  0  0  0
 23 25  1  0  0  0
 25 26  1  0  0  0
 28 27  1  0  0  0
 28 29  1  0  0  0
 28 30  1  0  0  0
 28 51  1  0  0  0
 31 32  1  0  0  0
 31 33  1  0  0  0
 31 18  1  0  0  0
 33 34  1  0  0  0
 35 34  1  0  0  0
 35 36  1  0  0  0
 35 13  1  0  0  0
 35 17  1  0  0  0
 37 14  1  0  0  0
 37 38  1  0  0  0
 37 39  1  0  0  0
 37 10  1  0  0  0
 40 54  1  0  0  0
 40 41  1  0  0  0
 41 55  1  0  0  0
 41 42  1  0  0  0
 42 56  1  0  0  0
 42  2  1  0  0  0
 51 52  1  0  0  0
 14 15  2  0  0  0
 26 27  2  0  0  0
 34 53  2  0  0  0
M  END
> <rmsd>
0.517665148

$$$$
MolPort-047-772-423


 56 61  0  0  0  0  0  0  0  0999 V2000
    7.5084    3.9517   56.1519 C   0  0  0  0  0
    6.7131    3.0035   55.2666 C   0  0  0  0  0
    4.6077    3.2233   56.1735 C   0  0  0  0  0
    3.7126    5.1618   56.7875 C   0  0  0  0  0
    2.7979    5.3135   58.0050 C   0  0  0  0  0
    2.8748    6.7284   58.5841 C   0  0  0  0  0
    2.7702    7.7562   57.4484 C   0  0  0  0  0
    2.8741    9.1679   58.0020 C   0  0  0  0  0
    3.5053    6.3510   55.8456 C   0  0  0  0  0
    3.6080    6.7334   53.6464 C   0  0  0  0  0
    2.8065    5.6247   52.9695 C   0  0  0  0  0
    1.8844    6.2488   51.9376 C   0  0  0  0  0
    2.7131    6.9350   50.8451 C   0  0  0  0  0
    3.7718    7.8732   51.3967 C   0  0  0  0  0
    4.2164    8.8959   50.6450 C   0  0  0  0  0
    3.5486    9.3395   49.3806 C   0  0  0  0  0
    2.7867    8.2206   48.6468 C   0  0  0  0  0
    2.0106    8.8315   47.4306 C   0  0  0  0  0
    2.9773    9.6798   46.5878 C   0  0  0  0  0
    1.5007    7.7604   46.4749 C   0  0  0  0  0
    0.2519    8.3220   45.8088 C   0  0  0  0  0
   -0.0708    9.6398   46.5104 C   0  0  0  0  0
   -1.5923    9.9512   46.5416 C   0  0  0  0  0
   -1.8875   11.2032   47.3546 C   0  0  0  0  0
   -2.1262   10.1546   45.1193 C   0  0  0  0  0
   -1.4157   11.2424   44.3793 C   0  0  0  0  0
   -0.8037   10.9758   43.2248 C   0  0  0  0  0
   -0.0576   12.0211   42.4401 C   0  0  0  0  0
    1.1314   12.5559   43.2377 C   0  0  0  0  0
    0.5022   11.3463   41.2074 C   0  0  0  0  0
    0.7303    9.6342   47.8246 C   0  0  0  0  0
    1.0559   11.0621   48.2604 C   0  0  0  0  0
   -0.0954    8.9502   48.9402 C   0  0  0  0  0
    0.7574    8.3946   50.0333 C   0  0  0  0  0
    1.8778    7.4568   49.6467 C   0  0  0  0  0
    1.2846    6.2212   48.9755 C   0  0  0  0  0
    4.5348    7.4695   52.6543 C   0  0  0  0  0
    5.0898    8.6965   53.3725 C   0  0  0  0  0
    5.7058    6.5783   52.2537 C   0  0  0  0  0
    4.2843    1.7278   56.2686 C   0  0  0  0  0
    5.4042    0.8833   55.6381 C   0  0  0  0  0
    6.7675    1.5593   55.8010 C   0  0  0  0  0
    5.3977    3.4863   55.0362 O   0  0  0  0  0
    3.4258    3.9679   56.1175 O   0  0  0  0  0
    3.1664    4.3906   58.9848 O   0  0  0  0  0
    1.8298    6.9099   59.4891 O   0  0  0  0  0
    2.5379   10.0886   57.0076 O   0  0  0  0  0
    3.8066    7.5455   56.5216 O   0  0  0  0  0
    4.3381    6.2166   54.7272 O   0  0  0  0  0
   -2.2865    8.8826   47.1103 O   0  0  0  0  0
   -0.9155   13.0571   42.0084 O   0  0  0  0  0
   -1.2532   13.7785   43.0667 O   0  0  0  0  0
    0.5740    8.7508   51.1873 O   0  0  0  0  0
    4.0874    1.3826   57.6090 O   0  0  0  0  0
    5.4223   -0.4115   56.1601 O   0  0  0  0  0
    7.7430    0.8423   55.1121 O   0  0  0  0  0
  2  1  1  0  0  0
  2 43  1  0  0  0
  3 43  1  0  0  0
  3 44  1  0  0  0
  3 40  1  0  0  0
  4 44  1  0  0  0
  4  5  1  0  0  0
  5 45  1  0  0  0
  5  6  1  0  0  0
  6 46  1  0  0  0
  6  7  1  0  0  0
  7  8  1  0  0  0
  7 48  1  0  0  0
  8 47  1  0  0  0
  9 48  1  0  0  0
  9 49  1  0  0  0
  9  4  1  0  0  0
 10 49  1  0  0  0
 10 11  1  0  0  0
 11 12  1  0  0  0
 12 13  1  0  0  0
 13 14  1  0  0  0
 16 15  1  0  0  0
 16 17  1  0  0  0
 17 18  1  0  0  0
 18 19  1  0  0  0
 18 20  1  0  0  0
 20 21  1  0  0  0
 21 22  1  0  0  0
 22 23  1  0  0  0
 22 31  1  0  0  0
 23 24  1  0  0  0
 23 50  1  0  0  0
 23 25  1  0  0  0
 25 26  1  0  0  0
 28 27  1  0  0  0
 28 29  1  0  0  0
 28 30  1  0  0  0
 28 51  1  0  0  0
 31 32  1  0  0  0
 31 33  1  0  0  0
 31 18  1  0  0  0
 33 34  1  0  0  0
 35 34  1  0  0  0
 35 36  1  0  0  0
 35 13  1  0  0  0
 35 17  1  0  0  0
 37 14  1  0  0  0
 37 38  1  0  0  0
 37 39  1  0  0  0
 37 10  1  0  0  0
 40 54  1  0  0  0
 40 41  1  0  0  0
 41 55  1  0  0  0
 41 42  1  0  0  0
 42 56  1  0  0  0
 42  2  1  0  0  0
 51 52  1  0  0  0
 14 15  2  0  0  0
 26 27  2  0  0  0
 34 53  2  0  0  0
M  END
> <rmsd>
0.528515995

$$$$
MolPort-006-536-878 ChemDiv-V007-4669 MCULE-9993276492 PubChem-46002673 ZINC000103095001


 45 50  0  0  0  0  0  0  0  0999 V2000
   -2.2815   14.4470   43.2222 C   0  0  0  0  0
   -0.3879   13.0045   43.8995 C   0  0  0  0  0
   -0.6457   13.1909   45.2624 C   0  0  0  0  0
    0.1532   12.5646   46.2186 C   0  0  0  0  0
    1.2274   11.7386   45.8430 C   0  0  0  0  0
    1.4934   11.5556   44.4624 C   0  0  0  0  0
    2.8820   10.5347   42.6768 C   0  0  0  0  0
    0.6768   12.1911   43.5112 C   0  0  0  0  0
    2.0443   11.0914   46.9088 C   0  0  0  0  0
    1.7972   11.3623   48.2604 C   0  0  0  0  0
    2.5649   10.7413   49.2410 C   0  0  0  0  0
    3.5748    9.8536   48.8609 C   0  0  0  0  0
    5.4684    8.2997   49.4285 C   0  0  0  0  0
    5.3844    6.9933   50.2091 C   0  0  0  0  0
    4.1776    8.1729   52.0618 C   0  0  0  0  0
    4.2407    9.4778   51.2711 C   0  0  0  0  0
    6.1866    6.7308   52.5777 C   0  0  0  0  0
    6.0442    6.9882   54.0447 C   0  0  0  0  0
    3.7917    6.1942   54.7807 C   0  0  0  0  0
    3.4050    6.3368   56.2133 C   0  0  0  0  0
    3.6558    7.5514   56.8931 C   0  0  0  0  0
    3.3163    7.6934   58.2509 C   0  0  0  0  0
    2.7366    6.5974   58.8854 C   0  0  0  0  0
    1.7900    5.1651   60.3849 C   0  0  0  0  0
    2.5024    5.4278   58.2361 C   0  0  0  0  0
    2.8227    5.2498   56.8925 C   0  0  0  0  0
    5.7691    4.6522   54.9571 C   0  0  0  0  0
    7.1965    4.4655   55.2880 C   0  0  0  0  0
    7.8919    5.3750   56.1091 C   0  0  0  0  0
    9.2426    5.1597   56.4033 C   0  0  0  0  0
    9.9053    4.0409   55.8908 C   0  0  0  0  0
    9.2167    3.1272   55.0904 C   0  0  0  0  0
    7.8672    3.3366   54.7951 C   0  0  0  0  0
   -1.1688   13.6165   42.9146 O   0  0  0  0  0
    2.5607   10.7503   44.0449 O   0  0  0  0  0
    7.1241    5.9883   52.1801 O   0  0  0  0  0
    2.3189    6.4860   60.1970 O   0  0  0  0  0
    1.9283    4.5246   59.1087 O   0  0  0  0  0
    5.0150    3.6410   54.9144 O   0  0  0  0  0
    3.7775    9.6206   47.5351 N   0  0  0  0  0
    3.0393   10.2167   46.5964 N   0  0  0  0  0
    4.3829    9.1857   49.8439 N   0  0  0  0  0
    5.2598    7.2885   51.6338 N   0  0  0  0  0
    5.2257    5.9534   54.6673 N   0  0  0  0  0
    7.2623    6.4436   56.6585 F   0  0  0  0  0
  1 34  1  0  0  0
  2 34  1  0  0  0
  3  4  1  0  0  0
  5  6  1  0  0  0
  5  9  1  0  0  0
  6 35  1  0  0  0
  7 35  1  0  0  0
  8  2  1  0  0  0
  9 41  1  0  0  0
 10 11  1  0  0  0
 12 40  1  0  0  0
 12 42  1  0  0  0
 13 42  1  0  0  0
 13 14  1  0  0  0
 14 43  1  0  0  0
 15 43  1  0  0  0
 15 16  1  0  0  0
 16 42  1  0  0  0
 18 17  1  0  0  0
 18 44  1  0  0  0
 19 44  1  0  0  0
 19 20  1  0  0  0
 21 22  1  0  0  0
 23 37  1  0  0  0
 24 37  1  0  0  0
 24 38  1  0  0  0
 25 38  1  0  0  0
 25 23  1  0  0  0
 26 20  1  0  0  0
 27 28  1  0  0  0
 29 45  1  0  0  0
 29 30  1  0  0  0
 31 32  1  0  0  0
 33 28  1  0  0  0
 43 17  1  0  0  0
 44 27  1  0  0  0
  2  3  2  0  0  0
  4  5  2  0  0  0
  6  8  2  0  0  0
  9 10  2  0  0  0
 11 12  2  0  0  0
 17 36  2  0  0  0
 20 21  2  0  0  0
 22 23  2  0  0  0
 25 26  2  0  0  0
 27 39  2  0  0  0
 28 29  2  0  0  0
 30 31  2  0  0  0
 32 33  2  0  0  0
 40 41  2  0  0  0
M  END
> <rmsd>
0.668427646

$$$$
MolPort-047-940-443 PubChem-91976257


111115  0  0  0  0  0  0  0  0999 V2000
    1.4376    8.1947   42.7059 C   0  0  0  0  0
    1.4099    8.0200   44.2182 C   0  0  0  0  0
   -0.0105    8.0162   44.8045 C   0  0  0  0  0
   -0.9089    6.9861   44.1404 C   0  0  0  0  0
   -0.6856    9.3954   44.8652 C   0  0  0  0  0
   -0.1591   10.2829   45.9484 C   0  0  0  0  0
    1.7835   10.9764   47.4707 C   0  0  0  0  0
    1.8947   12.4500   47.0486 C   0  0  0  0  0
    2.6030   12.5684   45.7094 C   0  0  0  0  0
    2.6888   13.2421   48.0725 C   0  0  0  0  0
    1.0381   10.7568   48.7614 C   0  0  0  0  0
    0.3008    9.1175   50.5599 C   0  0  0  0  0
   -1.2144    9.3065   50.3709 C   0  0  0  0  0
   -1.8189    8.2816   49.4214 C   0  0  0  0  0
    0.6696    7.7310   51.0594 C   0  0  0  0  0
    1.9488    5.5845   50.7106 C   0  0  0  0  0
    3.3438    5.2356   50.2221 C   0  0  0  0  0
    3.9038    6.4954   49.5729 C   0  0  0  0  0
    3.0222    7.6424   50.0348 C   0  0  0  0  0
    3.7299    8.4579   51.0692 C   0  0  0  0  0
    4.7808    8.6169   53.3644 C   0  0  0  0  0
    3.7214    9.3660   54.1763 C   0  0  0  0  0
    2.6042    8.4499   54.6599 C   0  0  0  0  0
    1.6929    9.1893   55.6220 C   0  0  0  0  0
    1.7970    9.9202   57.9270 C   0  0  0  0  0
    5.6292    7.7381   54.2257 C   0  0  0  0  0
    5.8376    5.8258   55.8513 C   0  0  0  0  0
    6.5867    4.7117   55.1155 C   0  0  0  0  0
    7.5516    3.9950   56.0440 C   0  0  0  0  0
    4.9862    5.3568   56.9993 C   0  0  0  0  0
    5.6556    7.3668   58.3948 C   0  0  0  0  0
    5.4148    7.7773   59.8343 C   0  0  0  0  0
    4.8982    6.5365   60.5558 C   0  0  0  0  0
    4.4352    5.5715   59.4781 C   0  0  0  0  0
    2.9390    5.5429   59.4206 C   0  0  0  0  0
   -1.8333   10.6335   42.9853 C   0  0  0  0  0
   -1.7197   11.3121   41.6559 C   0  0  0  0  0
   -2.3107   10.4320   40.5619 C   0  0  0  0  0
   -1.3718    9.3278   40.2028 C   0  0  0  0  0
   -2.0077   13.7093   42.4662 C   0  0  0  0  0
   -2.5490   15.0788   42.1840 C   0  0  0  0  0
   -4.0574   15.1711   42.4335 C   0  0  0  0  0
   -4.8677   14.3157   41.4705 C   0  0  0  0  0
   -6.3485   14.5884   41.6347 C   0  0  0  0  0
   -6.8035   15.6702   40.6627 C   0  0  0  0  0
   -0.8983   15.7041   40.3612 C   0  0  0  0  0
   -0.5898   15.8121   38.8972 C   0  0  0  0  0
   -1.0158   17.1100   38.1992 C   0  0  0  0  0
   -2.4927   17.3005   38.0713 C   0  0  0  0  0
   -3.1342   16.9841   36.8709 C   0  0  0  0  0
   -4.5128   17.1748   36.7464 C   0  0  0  0  0
   -5.2481   17.7011   37.8161 C   0  0  0  0  0
   -4.6039   18.0434   39.0039 C   0  0  0  0  0
   -3.2269   17.8449   39.1339 C   0  0  0  0  0
   -2.1742   14.0471   37.8572 C   0  0  0  0  0
   -2.3587   13.0503   36.7488 C   0  0  0  0  0
   -1.3049   13.1841   35.6370 C   0  0  0  0  0
   -1.3598   14.4945   34.9059 C   0  0  0  0  0
   -0.3089   15.4089   35.0422 C   0  0  0  0  0
   -0.3397   16.6210   34.3485 C   0  0  0  0  0
   -1.4170   16.9192   33.5082 C   0  0  0  0  0
   -2.4626   16.0045   33.3590 C   0  0  0  0  0
   -2.4348   14.7940   34.0581 C   0  0  0  0  0
   -4.3247   12.1628   35.3867 C   0  0  0  0  0
   -5.6614   12.4463   34.7630 C   0  0  0  0  0
   -5.8198   11.8140   33.3720 C   0  0  0  0  0
   -4.8985   12.4002   32.3471 C   0  0  0  0  0
   -5.2930   13.1449   31.2603 C   0  0  0  0  0
   -3.1609   12.8774   31.2326 C   0  0  0  0  0
   -7.1433   14.4680   35.0966 C   0  0  0  0  0
   -7.2846   15.9610   35.0850 C   0  0  0  0  0
   -7.7501   16.5243   33.7379 C   0  0  0  0  0
   -9.0616   15.9215   33.2571 C   0  0  0  0  0
   -6.6778   16.3568   32.6764 C   0  0  0  0  0
   -0.9174   11.1637   46.4351 O   0  0  0  0  0
    0.4587   11.7144   49.3465 O   0  0  0  0  0
   -1.8801    9.2792   51.5990 O   0  0  0  0  0
   -0.0510    7.1933   51.9450 O   0  0  0  0  0
    3.9205    9.6868   50.8628 O   0  0  0  0  0
    6.8562    7.9942   54.3374 O   0  0  0  0  0
    5.6999    3.7963   54.5421 O   0  0  0  0  0
    4.2478    4.3428   56.8666 O   0  0  0  0  0
    2.3206    4.4924   59.7318 O   0  0  0  0  0
    2.2251    6.6713   59.0310 O   0  0  0  0  0
   -2.9508   10.5285   43.5604 O   0  0  0  0  0
   -1.6771    8.1353   40.4613 O   0  0  0  0  0
   -1.1499   13.5629   43.3788 O   0  0  0  0  0
    0.0407   15.8222   41.1894 O   0  0  0  0  0
   -3.1682   14.3642   38.5637 O   0  0  0  0  0
   -3.7852   11.0281   35.2593 O   0  0  0  0  0
   -8.1221   13.7364   35.4020 O   0  0  0  0  0
    1.1920   10.1600   46.4093 N   0  0  0  0  0
    0.9881    9.4401   49.3122 N   0  0  0  0  0
    1.8358    7.0247   50.5986 N   0  0  0  0  0
    4.1852    7.8476   52.2798 N   0  0  0  0  0
    2.3492    9.3266   56.9149 N   0  0  0  0  0
    2.5101   10.0300   59.1519 N   0  0  0  0  0
    0.5051   10.5167   57.8144 N   0  0  0  0  0
    5.0552    6.6339   54.9287 N   0  0  0  0  0
    4.9894    6.0848   58.2358 N   0  0  0  0  0
   -0.6586   10.0827   43.5790 N   0  0  0  0  0
   -0.1389    9.6263   39.5510 N   0  0  0  0  0
   -2.4072   12.5965   41.6581 N   0  0  0  0  0
   -6.8799   15.1262   39.3165 N   0  0  0  0  0
   -2.2317   15.4730   40.8173 N   0  0  0  0  0
   -0.8786   14.5974   38.1328 N   0  0  0  0  0
   -3.7092   13.1598   36.2064 N   0  0  0  0  0
   -4.1852   13.4507   30.5615 N   0  0  0  0  0
   -3.5690   12.2173   32.3355 N   0  0  0  0  0
   -5.9037   13.8858   34.6997 N   0  0  0  0  0
   -8.1653   16.4058   36.1552 N   0  0  0  0  0
  1  2  1  0  0  0
  2  3  1  0  0  0
  3  4  1  0  0  0
  3  5  1  0  0  0
  5  6  1  0  0  0
  5101  1  0  0  0
  6 92  1  0  0  0
  7 92  1  0  0  0
  7  8  1  0  0  0
  7 11  1  0  0  0
  8  9  1  0  0  0
  8 10  1  0  0  0
 11 93  1  0  0  0
 12 93  1  0  0  0
 12 13  1  0  0  0
 12 15  1  0  0  0
 13 14  1  0  0  0
 13 77  1  0  0  0
 15 94  1  0  0  0
 16 94  1  0  0  0
 16 17  1  0  0  0
 17 18  1  0  0  0
 18 19  1  0  0  0
 19 20  1  0  0  0
 19 94  1  0  0  0
 20 95  1  0  0  0
 21 95  1  0  0  0
 21 22  1  0  0  0
 21 26  1  0  0  0
 22 23  1  0  0  0
 23 24  1  0  0  0
 24 96  1  0  0  0
 25 97  1  0  0  0
 25 98  1  0  0  0
 26 99  1  0  0  0
 27 99  1  0  0  0
 27 28  1  0  0  0
 27 30  1  0  0  0
 28 29  1  0  0  0
 28 81  1  0  0  0
 30100  1  0  0  0
 31100  1  0  0  0
 31 32  1  0  0  0
 32 33  1  0  0  0
 33 34  1  0  0  0
 34 35  1  0  0  0
 34100  1  0  0  0
 35 84  1  0  0  0
 37 36  1  0  0  0
 37 38  1  0  0  0
 37103  1  0  0  0
 38 39  1  0  0  0
 39102  1  0  0  0
 41 40  1  0  0  0
 41 42  1  0  0  0
 41105  1  0  0  0
 42 43  1  0  0  0
 43 44  1  0  0  0
 44 45  1  0  0  0
 45104  1  0  0  0
 47 46  1  0  0  0
 47 48  1  0  0  0
 47106  1  0  0  0
 48 49  1  0  0  0
 50 51  1  0  0  0
 52 53  1  0  0  0
 54 49  1  0  0  0
 56 55  1  0  0  0
 56 57  1  0  0  0
 56107  1  0  0  0
 57 58  1  0  0  0
 59 60  1  0  0  0
 61 62  1  0  0  0
 63 58  1  0  0  0
 65 64  1  0  0  0
 65 66  1  0  0  0
 65110  1  0  0  0
 66 67  1  0  0  0
 68108  1  0  0  0
 69109  1  0  0  0
 71 70  1  0  0  0
 71 72  1  0  0  0
 71111  1  0  0  0
 72 73  1  0  0  0
 72 74  1  0  0  0
101 36  1  0  0  0
103 40  1  0  0  0
105 46  1  0  0  0
106 55  1  0  0  0
107 64  1  0  0  0
109 67  1  0  0  0
110 70  1  0  0  0
  6 75  2  0  0  0
 11 76  2  0  0  0
 15 78  2  0  0  0
 20 79  2  0  0  0
 25 96  2  0  0  0
 26 80  2  0  0  0
 30 82  2  0  0  0
 35 83  2  0  0  0
 36 85  2  0  0  0
 39 86  2  0  0  0
 40 87  2  0  0  0
 46 88  2  0  0  0
 49 50  2  0  0  0
 51 52  2  0  0  0
 53 54  2  0  0  0
 55 89  2  0  0  0
 58 59  2  0  0  0
 60 61  2  0  0  0
 62 63  2  0  0  0
 64 90  2  0  0  0
 67 68  2  0  0  0
 69108  2  0  0  0
 70 91  2  0  0  0
M  END
> <rmsd>
0.717326701

$$$$
MolPort-029-886-498 108451315 LN00379025 MCULE-3663911022 PubChem-75492487 ZINC000108451315


 44 47  0  0  0  0  0  0  0  0999 V2000
    1.7453   13.7787   42.0048 C   0  0  0  0  0
    0.8342   12.6306   41.5849 C   0  0  0  0  0
   -0.6195   12.5157   43.5826 C   0  0  0  0  0
   -0.3068   10.6035   45.1812 C   0  0  0  0  0
    0.5712   10.8258   46.4083 C   0  0  0  0  0
   -0.8590   12.7820   47.0693 C   0  0  0  0  0
   -1.7287   12.5556   45.8362 C   0  0  0  0  0
   -0.2814   11.0321   48.7834 C   0  0  0  0  0
    0.3492    9.7305   49.1825 C   0  0  0  0  0
    1.8709    9.7507   49.0605 C   0  0  0  0  0
    2.5323   10.7567   49.9989 C   0  0  0  0  0
    2.5905    9.3261   52.1765 C   0  0  0  0  0
    1.9469    9.2569   53.4017 C   0  0  0  0  0
    2.0206    8.3299   54.4245 C   0  0  0  0  0
    2.7386    7.1468   54.5358 C   0  0  0  0  0
    2.5285    6.4040   55.8152 C   0  0  0  0  0
    2.7460    7.0389   57.0616 C   0  0  0  0  0
    3.7363    9.0676   58.1622 C   0  0  0  0  0
    2.4951    6.3342   58.2702 C   0  0  0  0  0
    2.2239    6.5216   60.7603 C   0  0  0  0  0
    2.1044    4.9733   58.2099 C   0  0  0  0  0
    1.4809    2.8768   59.3857 C   0  0  0  0  0
    1.9280    4.3585   56.9664 C   0  0  0  0  0
    2.1319    5.0567   55.7838 C   0  0  0  0  0
    1.9421    4.3419   54.4854 C   0  0  0  0  0
    3.2793    4.0626   53.7983 C   0  0  0  0  0
    4.2418    5.2654   53.7222 C   0  0  0  0  0
    6.1356    4.2771   55.0958 C   0  0  0  0  0
    7.1383    4.4619   56.1739 C   0  0  0  0  0
    3.5685    6.6034   53.5292 C   0  0  0  0  0
    3.9212    7.2163   52.3318 C   0  0  0  0  0
    3.5523    8.4058   51.7135 C   0  0  0  0  0
    0.3402   11.9528   42.7339 O   0  0  0  0  0
   -1.1943   13.5960   43.2674 O   0  0  0  0  0
   -0.9212   11.6782   49.6540 O   0  0  0  0  0
    3.2202    8.3634   57.0438 O   0  0  0  0  0
    2.6417    7.0125   59.4930 O   0  0  0  0  0
    1.9209    4.2307   59.3813 O   0  0  0  0  0
    6.1396    3.2171   54.4146 O   0  0  0  0  0
    4.1544    8.6521   50.6358 O   0  0  0  0  0
   -0.9434   11.8672   44.8176 N   0  0  0  0  0
   -0.1959   11.5294   47.4367 N   0  0  0  0  0
    2.2127   10.4745   51.3940 N   0  0  0  0  0
    5.1693    5.2998   54.8488 N   0  0  0  0  0
  1  2  1  0  0  0
  2 33  1  0  0  0
  3 33  1  0  0  0
  3 41  1  0  0  0
  4 41  1  0  0  0
  4  5  1  0  0  0
  5 42  1  0  0  0
  6 42  1  0  0  0
  6  7  1  0  0  0
  7 41  1  0  0  0
  9  8  1  0  0  0
  9 10  1  0  0  0
 10 11  1  0  0  0
 11 43  1  0  0  0
 13 14  1  0  0  0
 15 16  1  0  0  0
 17 36  1  0  0  0
 17 19  1  0  0  0
 18 36  1  0  0  0
 19 37  1  0  0  0
 20 37  1  0  0  0
 21 38  1  0  0  0
 21 23  1  0  0  0
 22 38  1  0  0  0
 24 16  1  0  0  0
 25 24  1  0  0  0
 25 26  1  0  0  0
 26 27  1  0  0  0
 27 44  1  0  0  0
 27 30  1  0  0  0
 29 28  1  0  0  0
 30 15  1  0  0  0
 31 32  1  0  0  0
 32 12  1  0  0  0
 42  8  1  0  0  0
 43 12  1  0  0  0
 44 28  1  0  0  0
  3 34  2  0  0  0
  8 35  2  0  0  0
 12 13  2  0  0  0
 14 15  2  0  0  0
 16 17  2  0  0  0
 19 21  2  0  0  0
 23 24  2  0  0  0
 28 39  2  0  0  0
 30 31  2  0  0  0
 32 40  2  0  0  0
M  END
> <rmsd>
0.761891425

$$$$
MolPort-046-682-699 PubChem-6538274


 67 69  0  0  0  0  0  0  0  0999 V2000
  -13.7985   19.9108   38.6742 C   0  0  0  0  0
  -12.4550   20.2643   38.0685 C   0  0  0  0  0
  -11.4244   19.1842   38.3607 C   0  0  0  0  0
  -10.8635   19.3257   39.7717 C   0  0  0  0  0
  -11.7147   18.5622   40.7776 C   0  0  0  0  0
  -11.4971   17.0579   40.6649 C   0  0  0  0  0
  -10.2409   16.6292   41.4067 C   0  0  0  0  0
   -9.0193   16.7644   40.5142 C   0  0  0  0  0
   -7.7979   16.4369   41.3016 C   0  0  0  0  0
   -6.5993   16.4701   40.7239 C   0  0  0  0  0
   -5.3601   16.1576   41.5030 C   0  0  0  0  0
   -5.1681   14.6581   41.6793 C   0  0  0  0  0
   -6.0988   14.1133   42.7477 C   0  0  0  0  0
   -5.7134   12.6852   43.0835 C   0  0  0  0  0
   -4.9457   12.6283   44.3998 C   0  0  0  0  0
   -3.5696   13.2638   44.2802 C   0  0  0  0  0
   -2.6267   12.3566   43.5104 C   0  0  0  0  0
   -1.3258   13.0495   43.2831 C   0  0  0  0  0
   -0.1224   13.6317   45.5130 C   0  0  0  0  0
    0.2316   12.9611   46.8266 C   0  0  0  0  0
   -0.5987   10.6474   47.3846 C   0  0  0  0  0
   -1.6913    9.7731   47.8958 C   0  0  0  0  0
   -1.9689   10.0575   49.3661 C   0  0  0  0  0
   -0.0529   10.5903   50.9096 C   0  0  0  0  0
    1.1187   10.1182   51.7250 C   0  0  0  0  0
    2.3754    9.8041   50.8794 C   0  0  0  0  0
    2.1050    8.6287   49.9547 C   0  0  0  0  0
    2.7723   11.0001   50.0267 C   0  0  0  0  0
    3.5729    9.4534   51.7653 C   0  0  0  0  0
    3.4547    5.7869   56.7134 C   0  0  0  0  0
    3.2866    4.5456   57.5813 C   0  0  0  0  0
    5.1021    3.2808   58.1403 C   0  0  0  0  0
    4.9430    4.3066   59.2408 C   0  0  0  0  0
    3.5595    4.8567   59.0351 C   0  0  0  0  0
    7.6140    3.1724   58.2920 C   0  0  0  0  0
    8.2217    3.5331   56.2925 C   0  0  0  0  0
    8.8832    3.7445   55.0914 C   0  0  0  0  0
    6.7553    3.9676   54.0396 C   0  0  0  0  0
    6.8717    3.5562   56.3338 C   0  0  0  0  0
   -1.2609   13.9973   42.5176 O   0  0  0  0  0
    0.5340   10.1521   47.1388 O   0  0  0  0  0
   -0.2978   11.8220   50.8097 O   0  0  0  0  0
    1.4099   11.0413   52.7358 O   0  0  0  0  0
    3.2484    8.4775   52.7128 O   0  0  0  0  0
    4.1125    6.3477   51.1931 O   0  0  0  0  0
    5.8202    7.8834   52.4223 O   0  0  0  0  0
    4.3846    6.2467   53.9279 O   0  0  0  0  0
    6.5918    7.4914   55.0791 O   0  0  0  0  0
    4.1659    8.4058   55.4540 O   0  0  0  0  0
    4.7969    6.1751   56.6683 O   0  0  0  0  0
    4.1355    3.5099   57.1377 O   0  0  0  0  0
    5.0911    3.7056   60.4950 O   0  0  0  0  0
    2.6138    4.1877   59.8219 O   0  0  0  0  0
    3.0092    5.6597   62.1304 O   0  0  0  0  0
    1.6856    6.8143   60.0000 O   0  0  0  0  0
    0.6321    4.8660   61.3847 O   0  0  0  0  0
    0.1450   12.4811   44.1305 S   0  0  0  0  0
   -0.8297   12.0473   47.2163 N   0  0  0  0  0
   -0.8391    9.6415   50.1822 N   0  0  0  0  0
    6.4600    3.3363   57.5918 N   0  0  0  0  0
    8.7270    3.2930   57.5158 N   0  0  0  0  0
   10.3051    3.7418   55.0158 N   0  0  0  0  0
    8.1256    3.9606   53.9763 N   0  0  0  0  0
    6.1132    3.7626   55.2290 N   0  0  0  0  0
    4.4409    7.2735   52.5690 P   0  0  0  0  0
    4.9516    7.1247   55.2755 P   0  0  0  0  0
    1.9509    5.3692   60.8429 P   0  0  0  0  0
  1  2  1  0  0  0
  2  3  1  0  0  0
  3  4  1  0  0  0
  4  5  1  0  0  0
  5  6  1  0  0  0
  6  7  1  0  0  0
  7  8  1  0  0  0
  8  9  1  0  0  0
 11 10  1  0  0  0
 11 12  1  0  0  0
 12 13  1  0  0  0
 13 14  1  0  0  0
 14 15  1  0  0  0
 15 16  1  0  0  0
 16 17  1  0  0  0
 17 18  1  0  0  0
 18 57  1  0  0  0
 19 57  1  0  0  0
 19 20  1  0  0  0
 20 58  1  0  0  0
 22 21  1  0  0  0
 22 23  1  0  0  0
 23 59  1  0  0  0
 25 24  1  0  0  0
 25 43  1  0  0  0
 25 26  1  0  0  0
 26 27  1  0  0  0
 26 28  1  0  0  0
 26 29  1  0  0  0
 29 44  1  0  0  0
 30 50  1  0  0  0
 31 30  1  0  0  0
 31 51  1  0  0  0
 32 51  1  0  0  0
 32 33  1  0  0  0
 32 60  1  0  0  0
 33 52  1  0  0  0
 33 34  1  0  0  0
 34 53  1  0  0  0
 34 31  1  0  0  0
 36 61  1  0  0  0
 37 62  1  0  0  0
 37 63  1  0  0  0
 38 64  1  0  0  0
 39 60  1  0  0  0
 39 36  1  0  0  0
 58 21  1  0  0  0
 59 24  1  0  0  0
 60 35  1  0  0  0
 65 44  1  0  0  0
 65 45  1  0  0  0
 65 47  1  0  0  0
 66 47  1  0  0  0
 66 48  1  0  0  0
 66 50  1  0  0  0
 67 53  1  0  0  0
 67 54  1  0  0  0
 67 55  1  0  0  0
  9 10  2  0  0  0
 18 40  2  0  0  0
 21 41  2  0  0  0
 24 42  2  0  0  0
 35 61  2  0  0  0
 36 37  2  0  0  0
 38 63  2  0  0  0
 39 64  2  0  0  0
 65 46  2  0  0  0
 66 49  2  0  0  0
 67 56  2  0  0  0
M  END
> <rmsd>
0.667717457

$$$$
MolPort-003-959-432 CHEMBL3596198


 86 94  0  0  0  0  0  0  0  0999 V2000
   -0.0084   12.4856   32.5665 C   0  0  0  0  0
    0.2990   13.8433   32.6638 C   0  0  0  0  0
   -0.3357   14.6314   33.6271 C   0  0  0  0  0
   -1.2840   14.0715   34.4990 C   0  0  0  0  0
   -1.5930   12.7036   34.3927 C   0  0  0  0  0
   -0.9525   11.9182   33.4279 C   0  0  0  0  0
   -2.4661   16.9498   36.5114 C   0  0  0  0  0
   -2.9750   18.2116   36.1643 C   0  0  0  0  0
   -3.6482   18.9770   37.1157 C   0  0  0  0  0
   -3.7904   18.5270   38.4242 C   0  0  0  0  0
   -3.2288   17.2879   38.8235 C   0  0  0  0  0
   -2.5781   16.4936   37.8455 C   0  0  0  0  0
   -3.3286   16.9068   40.1899 C   0  0  0  0  0
   -4.0295   17.7307   41.0817 C   0  0  0  0  0
   -4.6151   18.9231   40.6616 C   0  0  0  0  0
   -4.4763   19.3282   39.3376 C   0  0  0  0  0
   -2.5785   15.2524   42.0217 C   0  0  0  0  0
   -1.5363   13.8472   43.6015 C   0  0  0  0  0
   -3.2323   15.3328   44.2782 C   0  0  0  0  0
   -0.1473   12.3879   45.1947 C   0  0  0  0  0
   -0.6664   12.9424   46.3727 C   0  0  0  0  0
   -0.2373   12.4824   47.6196 C   0  0  0  0  0
    0.7203   11.4676   47.7091 C   0  0  0  0  0
    1.2375   10.9041   46.5310 C   0  0  0  0  0
    0.8073   11.3661   45.2829 C   0  0  0  0  0
    2.1528   10.0808   49.3253 C   0  0  0  0  0
    4.0541    8.8322   48.7263 C   0  0  0  0  0
    3.2221    8.7134   50.9237 C   0  0  0  0  0
    2.3827    8.3284   53.3299 C   0  0  0  0  0
    1.1994    9.0491   53.1247 C   0  0  0  0  0
    0.2600    9.2070   54.1371 C   0  0  0  0  0
    0.4823    8.6284   55.3824 C   0  0  0  0  0
    1.6482    7.9026   55.6184 C   0  0  0  0  0
    2.6245    7.7392   54.6020 C   0  0  0  0  0
    3.7894    6.9868   54.8970 C   0  0  0  0  0
    3.9644    6.4117   56.1820 C   0  0  0  0  0
    2.9671    6.5834   57.1600 C   0  0  0  0  0
    1.8279    7.3272   56.8690 C   0  0  0  0  0
    7.3586    4.9010   56.1529 C   0  0  0  0  0
    7.2799    3.5498   56.5891 C   0  0  0  0  0
    8.4596    2.8592   56.8832 C   0  0  0  0  0
    9.7034    3.4739   56.7488 C   0  0  0  0  0
    9.7819    4.7893   56.2999 C   0  0  0  0  0
    8.6151    5.4954   55.9956 C   0  0  0  0  0
   -2.8013   11.9579   35.4339 S   0  0  0  0  0
   -5.4997   19.9222   41.8020 S   0  0  0  0  0
    3.1026    5.8836   58.7723 S   0  0  0  0  0
    5.7690    2.6490   56.6956 S   0  0  0  0  0
   -1.2127   10.1044   53.8322 S   0  0  0  0  0
   -2.8036   18.8442   34.5262 S   0  0  0  0  0
   -4.1157   12.6698   35.2697 O   0  0  0  0  0
   -2.3564   12.0421   36.8681 O   0  0  0  0  0
   -2.9935   10.3425   35.0153 O   0  0  0  0  0
   -2.0313   15.2604   38.1847 O   0  0  0  0  0
   -6.8225   20.3151   41.2054 O   0  0  0  0  0
   -5.7481   19.1508   43.0686 O   0  0  0  0  0
   -4.6078   21.3010   42.1554 O   0  0  0  0  0
    2.6226    4.4604   58.7416 O   0  0  0  0  0
    2.2521    6.6725   59.7294 O   0  0  0  0  0
    4.6932    5.9388   59.3073 O   0  0  0  0  0
    4.9141    2.9209   55.4897 O   0  0  0  0  0
    5.0357    3.0345   57.9454 O   0  0  0  0  0
    6.1123    1.0057   56.7465 O   0  0  0  0  0
    4.7627    6.7921   53.9214 O   0  0  0  0  0
   -1.4982   11.0112   54.9956 O   0  0  0  0  0
   -1.0561   10.9367   52.5907 O   0  0  0  0  0
   -2.4853    9.0295   53.6205 O   0  0  0  0  0
   -1.3466   18.9825   34.1867 O   0  0  0  0  0
   -3.4582   20.1930   34.4248 O   0  0  0  0  0
   -3.5414   17.7929   33.4422 O   0  0  0  0  0
   -1.9238   14.8760   35.4977 N   0  0  0  0  0
   -1.8361   16.1468   35.5002 N   0  0  0  0  0
   -2.6627   15.7258   40.6712 N   0  0  0  0  0
   -1.6757   14.2848   42.3245 N   0  0  0  0  0
   -2.3207   14.3743   44.5782 N   0  0  0  0  0
   -3.3591   15.7728   43.0031 N   0  0  0  0  0
   -0.5529   12.8454   43.8955 N   0  0  0  0  0
    1.1069   11.0054   49.0087 N   0  0  0  0  0
    3.0656    9.7006   48.3945 N   0  0  0  0  0
    4.1313    8.3393   49.9885 N   0  0  0  0  0
    2.2412    9.5923   50.5878 N   0  0  0  0  0
    3.3164    8.1658   52.2476 N   0  0  0  0  0
    5.1254    5.6269   56.5064 N   0  0  0  0  0
    6.2092    5.6991   55.8442 N   0  0  0  0  0
   -4.2269   16.0245   45.5363 Cl  0  0  0  0  0
    5.2291    8.3445   47.5252 Cl  0  0  0  0  0
  2  3  1  0  0  0
  4  5  1  0  0  0
  4 71  1  0  0  0
  6  1  1  0  0  0
  7 72  1  0  0  0
  8  9  1  0  0  0
 10 11  1  0  0  0
 11 13  1  0  0  0
 12 54  1  0  0  0
 12  7  1  0  0  0
 13 73  1  0  0  0
 14 15  1  0  0  0
 16 10  1  0  0  0
 17 76  1  0  0  0
 18 74  1  0  0  0
 18 77  1  0  0  0
 19 75  1  0  0  0
 19 85  1  0  0  0
 21 22  1  0  0  0
 23 24  1  0  0  0
 23 78  1  0  0  0
 25 20  1  0  0  0
 26 81  1  0  0  0
 27 79  1  0  0  0
 27 86  1  0  0  0
 28 80  1  0  0  0
 28 82  1  0  0  0
 30 31  1  0  0  0
 32 33  1  0  0  0
 34 35  1  0  0  0
 34 29  1  0  0  0
 35 64  1  0  0  0
 36 37  1  0  0  0
 36 83  1  0  0  0
 38 33  1  0  0  0
 39 84  1  0  0  0
 40 41  1  0  0  0
 42 43  1  0  0  0
 44 39  1  0  0  0
 45  5  1  0  0  0
 45 53  1  0  0  0
 46 15  1  0  0  0
 46 57  1  0  0  0
 47 37  1  0  0  0
 47 60  1  0  0  0
 48 40  1  0  0  0
 48 63  1  0  0  0
 49 31  1  0  0  0
 49 67  1  0  0  0
 50  8  1  0  0  0
 50 70  1  0  0  0
 73 17  1  0  0  0
 77 20  1  0  0  0
 78 26  1  0  0  0
 82 29  1  0  0  0
  1  2  2  0  0  0
  3  4  2  0  0  0
  5  6  2  0  0  0
  7  8  2  0  0  0
  9 10  2  0  0  0
 11 12  2  0  0  0
 13 14  2  0  0  0
 15 16  2  0  0  0
 17 74  2  0  0  0
 18 75  2  0  0  0
 19 76  2  0  0  0
 20 21  2  0  0  0
 22 23  2  0  0  0
 24 25  2  0  0  0
 26 79  2  0  0  0
 27 80  2  0  0  0
 28 81  2  0  0  0
 29 30  2  0  0  0
 31 32  2  0  0  0
 33 34  2  0  0  0
 35 36  2  0  0  0
 37 38  2  0  0  0
 39 40  2  0  0  0
 41 42  2  0  0  0
 43 44  2  0  0  0
 45 51  2  0  0  0
 45 52  2  0  0  0
 46 55  2  0  0  0
 46 56  2  0  0  0
 47 58  2  0  0  0
 47 59  2  0  0  0
 48 61  2  0  0  0
 48 62  2  0  0  0
 49 65  2  0  0  0
 49 66  2  0  0  0
 50 68  2  0  0  0
 50 69  2  0  0  0
 71 72  2  0  0  0
 83 84  2  0  0  0
M  END
> <rmsd>
0.792765379

$$$$
MolPort-016-936-932 ChemDiv-V025-8653 MCULE-2502914059 PubChem-46148984 ZINC000103372324


 45 51  0  0  0  0  0  0  0  0999 V2000
   -0.0906   12.3888   42.4938 C   0  0  0  0  0
   -0.7877   13.4293   44.6267 C   0  0  0  0  0
   -1.5979   14.3623   45.2802 C   0  0  0  0  0
   -1.5364   14.4995   46.6687 C   0  0  0  0  0
   -0.6624   13.7026   47.4124 C   0  0  0  0  0
    0.1591   12.7610   46.7756 C   0  0  0  0  0
    0.0890   12.6313   45.3794 C   0  0  0  0  0
    1.0814   11.9224   47.5705 C   0  0  0  0  0
    2.7841   10.3880   49.1216 C   0  0  0  0  0
    2.7663   10.2072   47.7353 C   0  0  0  0  0
    1.9102   10.9787   46.9552 C   0  0  0  0  0
    3.6904    9.8355   51.4016 C   0  0  0  0  0
    3.6195    8.5016   52.1370 C   0  0  0  0  0
    4.5518    7.3356   50.1269 C   0  0  0  0  0
    4.6149    8.6661   49.3821 C   0  0  0  0  0
    5.6044    6.9610   52.3810 C   0  0  0  0  0
    5.6283    7.1669   53.8624 C   0  0  0  0  0
    3.4764    6.2627   54.7410 C   0  0  0  0  0
    3.1706    6.3764   56.1955 C   0  0  0  0  0
    3.3568    7.6101   56.8593 C   0  0  0  0  0
    3.0944    7.7269   58.2366 C   0  0  0  0  0
    2.6534    6.5876   58.9049 C   0  0  0  0  0
    1.9284    5.0860   60.4581 C   0  0  0  0  0
    2.4784    5.4007   58.2695 C   0  0  0  0  0
    2.7280    5.2463   56.9085 C   0  0  0  0  0
    5.5245    4.8088   54.7707 C   0  0  0  0  0
    6.9745    4.6685   55.0372 C   0  0  0  0  0
    7.5792    3.3955   54.9532 C   0  0  0  0  0
    8.9389    3.2970   55.2336 C   0  0  0  0  0
    9.6814    4.3759   55.5859 C   0  0  0  0  0
   11.0706    2.5705   55.5757 C   0  0  0  0  0
    9.1307    5.6488   55.6917 C   0  0  0  0  0
    7.7587    5.7863   55.4157 C   0  0  0  0  0
   -0.8725   13.3148   43.2366 O   0  0  0  0  0
    6.4699    6.2091   51.8571 O   0  0  0  0  0
    2.3321    6.4456   60.2401 O   0  0  0  0  0
    2.0386    4.4551   59.1743 O   0  0  0  0  0
    4.8053    3.7718   54.7576 O   0  0  0  0  0
   10.9871    3.9842   55.8041 O   0  0  0  0  0
    9.7404    2.1734   55.2141 O   0  0  0  0  0
    1.1355   12.0581   48.9244 N   0  0  0  0  0
    1.9560   11.3177   49.6726 N   0  0  0  0  0
    3.6484    9.6021   49.9586 N   0  0  0  0  0
    4.5995    7.5812   51.5656 N   0  0  0  0  0
    4.9102    6.0916   54.5369 N   0  0  0  0  0
  1 34  1  0  0  0
  2 34  1  0  0  0
  3  4  1  0  0  0
  5  6  1  0  0  0
  6  8  1  0  0  0
  7  2  1  0  0  0
  9 10  1  0  0  0
  9 43  1  0  0  0
 11  8  1  0  0  0
 12 43  1  0  0  0
 12 13  1  0  0  0
 13 44  1  0  0  0
 14 44  1  0  0  0
 14 15  1  0  0  0
 15 43  1  0  0  0
 17 16  1  0  0  0
 17 45  1  0  0  0
 18 45  1  0  0  0
 18 19  1  0  0  0
 20 21  1  0  0  0
 22 36  1  0  0  0
 23 36  1  0  0  0
 23 37  1  0  0  0
 24 37  1  0  0  0
 24 22  1  0  0  0
 25 19  1  0  0  0
 26 27  1  0  0  0
 28 29  1  0  0  0
 29 40  1  0  0  0
 30 39  1  0  0  0
 30 32  1  0  0  0
 31 39  1  0  0  0
 31 40  1  0  0  0
 33 27  1  0  0  0
 41 42  1  0  0  0
 44 16  1  0  0  0
 45 26  1  0  0  0
  2  3  2  0  0  0
  4  5  2  0  0  0
  6  7  2  0  0  0
  8 41  2  0  0  0
  9 42  2  0  0  0
 10 11  2  0  0  0
 16 35  2  0  0  0
 19 20  2  0  0  0
 21 22  2  0  0  0
 24 25  2  0  0  0
 26 38  2  0  0  0
 27 28  2  0  0  0
 29 30  2  0  0  0
 32 33  2  0  0  0
M  END
> <rmsd>
0.779790759

$$$$
MolPort-005-945-179 PubChem-45359877


 95105  0  0  0  0  0  0  0  0999 V2000
   -2.6645   12.0566   45.5351 C   0  0  0  0  0
   -1.1865   12.3803   45.6131 C   0  0  0  0  0
   -0.8689   13.6603   44.8263 C   0  0  0  0  0
    0.6291   13.9725   44.9051 C   0  0  0  0  0
    1.1245   13.8924   46.3522 C   0  0  0  0  0
    0.5886   12.5995   46.9964 C   0  0  0  0  0
    0.4881   13.1470   49.2376 C   0  0  0  0  0
    1.5419   14.0146   49.9504 C   0  0  0  0  0
    2.2024   13.2891   51.1343 C   0  0  0  0  0
    0.5378   11.8373   51.4322 C   0  0  0  0  0
   -0.3212   12.2902   50.2342 C   0  0  0  0  0
   -0.2732   10.7184   53.1579 C   0  0  0  0  0
   -1.6222   10.0085   53.3305 C   0  0  0  0  0
   -2.0105   10.0190   54.8100 C   0  0  0  0  0
    0.1031   10.2319   55.5691 C   0  0  0  0  0
    0.7575   10.2241   54.1811 C   0  0  0  0  0
    0.6141   10.3615   57.7411 C   0  0  0  0  0
    1.6542   11.3600   58.2700 C   0  0  0  0  0
    2.9243   10.6554   58.7834 C   0  0  0  0  0
    1.8093    8.6546   59.0972 C   0  0  0  0  0
    0.4282    9.2342   58.7514 C   0  0  0  0  0
    1.4143    6.4472   59.0845 C   0  0  0  0  0
    2.6880    5.7050   58.7173 C   0  0  0  0  0
    3.2967    6.3008   57.4275 C   0  0  0  0  0
    3.5869    5.2348   56.3628 C   0  0  0  0  0
    4.1692    3.9493   56.9669 C   0  0  0  0  0
    3.6411    3.7041   58.3884 C   0  0  0  0  0
    3.9078    2.1859   59.9717 C   0  0  0  0  0
    2.7294    1.6554   60.7769 C   0  0  0  0  0
    3.0731    1.6644   62.2599 C   0  0  0  0  0
    4.3285    0.8361   62.5995 C   0  0  0  0  0
    5.5109    1.1662   61.6353 C   0  0  0  0  0
    5.1292    1.2651   60.1321 C   0  0  0  0  0
    6.2976    1.8042   59.3154 C   0  0  0  0  0
    4.8261   -0.1250   59.5853 C   0  0  0  0  0
    6.2900    2.3792   62.1397 C   0  0  0  0  0
    7.0470    1.9882   63.4021 C   0  0  0  0  0
    6.1905    1.2413   64.4525 C   0  0  0  0  0
    4.6850    1.1986   64.0726 C   0  0  0  0  0
    3.7951    0.5148   65.1285 C   0  0  0  0  0
    4.2670    0.7159   66.5431 C   0  0  0  0  0
    5.4239    1.3154   66.8820 C   0  0  0  0  0
    6.3383    1.9498   65.8390 C   0  0  0  0  0
    7.8068    1.8872   66.3016 C   0  0  0  0  0
    7.9936    2.3686   67.7386 C   0  0  0  0  0
    7.2217    1.4903   68.7240 C   0  0  0  0  0
    5.7053    1.4882   68.3566 C   0  0  0  0  0
    4.9737    2.7077   68.9220 C   0  0  0  0  0
    5.0419    2.7486   70.4554 C   0  0  0  0  0
    6.2426    1.9826   71.0351 C   0  0  0  0  0
    7.4662    2.0862   70.1232 C   0  0  0  0  0
    3.7685    2.1404   71.0168 C   0  0  0  0  0
    5.1217    4.1976   70.8902 C   0  0  0  0  0
    7.7917    0.0913   68.7105 C   0  0  0  0  0
    9.7905   -1.3637   68.8073 C   0  0  0  0  0
   11.2751   -1.2310   69.1813 C   0  0  0  0  0
   12.1845   -2.1030   68.3027 C   0  0  0  0  0
   11.5133   -3.4130   67.8621 C   0  0  0  0  0
   10.0051   -3.2542   67.6206 C   0  0  0  0  0
    5.9436    3.4249   65.7259 C   0  0  0  0  0
    6.7156   -0.1945   64.5181 C   0  0  0  0  0
    4.0183   -0.6540   62.4795 C   0  0  0  0  0
    6.4269    3.6984   55.8631 C   0  0  0  0  0
    7.9040    3.8279   55.9460 C   0  0  0  0  0
    3.8634   10.1841   57.6736 C   0  0  0  0  0
    3.7021   13.4921   51.1021 C   0  0  0  0  0
   -0.8223   12.5443   46.9618 O   0  0  0  0  0
    1.1301   12.3370   48.2806 O   0  0  0  0  0
    1.9062   11.9153   51.1334 O   0  0  0  0  0
   -0.9264   11.2084   49.5839 O   0  0  0  0  0
    0.2032   10.5464   51.8561 O   0  0  0  0  0
   -1.0190    9.3780   55.5753 O   0  0  0  0  0
    1.1733    8.9262   53.8617 O   0  0  0  0  0
    1.0343    9.8113   56.5218 O   0  0  0  0  0
    2.6269    9.6291   59.7134 O   0  0  0  0  0
   -0.2139    9.7081   59.8999 O   0  0  0  0  0
    1.6986    7.5313   59.9264 O   0  0  0  0  0
    2.4008    4.3368   58.5718 O   0  0  0  0  0
    3.5300    2.3341   58.6314 O   0  0  0  0  0
    7.0384   -0.9074   68.5424 O   0  0  0  0  0
    9.1714   -0.0857   68.8762 O   0  0  0  0  0
    9.6467   -1.8989   67.5128 O   0  0  0  0  0
   11.7203   -4.3909   68.8296 O   0  0  0  0  0
   12.5589   -1.3764   67.1695 O   0  0  0  0  0
   11.4485   -1.5763   70.5270 O   0  0  0  0  0
    5.8960    3.2932   54.7934 O   0  0  0  0  0
    2.4025    4.9307   55.6899 O   0  0  0  0  0
    4.4728    6.9809   57.7415 O   0  0  0  0  0
    1.9600   12.3252   57.3061 O   0  0  0  0  0
   -2.5993   10.6754   52.5903 O   0  0  0  0  0
    0.9592   15.2014   50.4005 O   0  0  0  0  0
    0.6849   15.0138   47.0575 O   0  0  0  0  0
    1.3632   13.0864   44.1082 O   0  0  0  0  0
   -1.2520   13.5305   43.4914 O   0  0  0  0  0
    5.6226    4.0331   56.9956 N   0  0  0  0  0
  1  2  1  0  0  0
  2  3  1  0  0  0
  2 67  1  0  0  0
  3  4  1  0  0  0
  3 94  1  0  0  0
  4  5  1  0  0  0
  4 93  1  0  0  0
  5  6  1  0  0  0
  5 92  1  0  0  0
  6 67  1  0  0  0
  6 68  1  0  0  0
  7 68  1  0  0  0
  7  8  1  0  0  0
  8  9  1  0  0  0
  8 91  1  0  0  0
  9 69  1  0  0  0
  9 66  1  0  0  0
 10 69  1  0  0  0
 10 11  1  0  0  0
 10 71  1  0  0  0
 11 70  1  0  0  0
 11  7  1  0  0  0
 12 71  1  0  0  0
 12 13  1  0  0  0
 13 14  1  0  0  0
 13 90  1  0  0  0
 14 72  1  0  0  0
 15 72  1  0  0  0
 15 16  1  0  0  0
 15 74  1  0  0  0
 16 73  1  0  0  0
 16 12  1  0  0  0
 17 74  1  0  0  0
 17 18  1  0  0  0
 18 19  1  0  0  0
 18 89  1  0  0  0
 19 75  1  0  0  0
 19 65  1  0  0  0
 20 75  1  0  0  0
 20 21  1  0  0  0
 20 77  1  0  0  0
 21 76  1  0  0  0
 21 17  1  0  0  0
 22 77  1  0  0  0
 23 22  1  0  0  0
 23 24  1  0  0  0
 23 78  1  0  0  0
 24 25  1  0  0  0
 24 88  1  0  0  0
 25 26  1  0  0  0
 25 87  1  0  0  0
 26 27  1  0  0  0
 26 95  1  0  0  0
 27 78  1  0  0  0
 27 79  1  0  0  0
 28 79  1  0  0  0
 28 29  1  0  0  0
 29 30  1  0  0  0
 30 31  1  0  0  0
 31 32  1  0  0  0
 31 62  1  0  0  0
 32 33  1  0  0  0
 32 36  1  0  0  0
 33 34  1  0  0  0
 33 35  1  0  0  0
 33 28  1  0  0  0
 36 37  1  0  0  0
 37 38  1  0  0  0
 38 39  1  0  0  0
 38 61  1  0  0  0
 39 40  1  0  0  0
 39 31  1  0  0  0
 40 41  1  0  0  0
 43 42  1  0  0  0
 43 44  1  0  0  0
 43 60  1  0  0  0
 43 38  1  0  0  0
 44 45  1  0  0  0
 45 46  1  0  0  0
 46 47  1  0  0  0
 46 54  1  0  0  0
 47 48  1  0  0  0
 47 42  1  0  0  0
 48 49  1  0  0  0
 49 50  1  0  0  0
 49 52  1  0  0  0
 49 53  1  0  0  0
 50 51  1  0  0  0
 51 46  1  0  0  0
 54 81  1  0  0  0
 55 81  1  0  0  0
 55 56  1  0  0  0
 55 82  1  0  0  0
 56 57  1  0  0  0
 56 85  1  0  0  0
 57 58  1  0  0  0
 57 84  1  0  0  0
 58 59  1  0  0  0
 58 83  1  0  0  0
 59 82  1  0  0  0
 64 63  1  0  0  0
 95 63  1  0  0  0
 41 42  2  0  0  0
 54 80  2  0  0  0
 63 86  2  0  0  0
M  END
> <rmsd>
0.589218676

$$$$
MolPort-046-162-735 PubChem-121513898


 79 79  0  0  0  0  0  0  0  0999 V2000
    3.1731   10.9457   47.0875 C   0  0  0  0  0
    2.2686    9.7609   46.7824 C   0  0  0  0  0
    1.3833   10.0631   45.6172 C   0  0  0  0  0
    1.1900   10.6406   43.1160 C   0  0  0  0  0
    0.0633    9.6552   42.8324 C   0  0  0  0  0
    0.5992    8.4345   42.0992 C   0  0  0  0  0
    0.5360    8.6390   40.5895 C   0  0  0  0  0
    1.6862    9.5039   40.1037 C   0  0  0  0  0
    0.6990   12.0502   43.1672 C   0  0  0  0  0
   -0.7698   13.8099   44.3204 C   0  0  0  0  0
    0.3541   14.8391   44.4977 C   0  0  0  0  0
   -0.2137   16.2196   44.7769 C   0  0  0  0  0
    1.2477   14.4532   45.6598 C   0  0  0  0  0
   -1.7221   14.1552   43.2110 C   0  0  0  0  0
    2.9414    7.3759   47.2613 C   0  0  0  0  0
    3.7631    6.1870   46.8744 C   0  0  0  0  0
    3.2567    5.5337   45.5872 C   0  0  0  0  0
    2.0183    4.6547   45.7658 C   0  0  0  0  0
    0.7561    5.4633   46.0296 C   0  0  0  0  0
    0.3623    6.2696   44.8042 C   0  0  0  0  0
    4.9501    4.2854   48.0594 C   0  0  0  0  0
    4.9407    3.2204   49.1082 C   0  0  0  0  0
    4.9042    4.6567   51.2048 C   0  0  0  0  0
    4.1770    5.0507   52.4512 C   0  0  0  0  0
    3.5180    6.4197   52.3131 C   0  0  0  0  0
    2.5716    6.6977   53.4693 C   0  0  0  0  0
    1.3336    5.8253   53.3618 C   0  0  0  0  0
    2.1616    8.1556   53.4288 C   0  0  0  0  0
    6.0807    5.8759   53.9791 C   0  0  0  0  0
    6.9104    5.6517   55.2013 C   0  0  0  0  0
    7.8986    4.5118   55.0132 C   0  0  0  0  0
    5.3211    4.2946   56.7136 C   0  0  0  0  0
    4.6040    4.1908   58.0213 C   0  0  0  0  0
    3.9498    5.5087   58.4189 C   0  0  0  0  0
    2.8604    5.3274   59.4300 C   0  0  0  0  0
    6.6565    4.3886   59.5480 C   0  0  0  0  0
    7.7687    3.6287   60.2057 C   0  0  0  0  0
    8.7396    3.0158   59.1771 C   0  0  0  0  0
    9.4295    4.0903   58.3509 C   0  0  0  0  0
    8.0665    2.0055   58.2649 C   0  0  0  0  0
    8.0522    1.8368   61.9691 C   0  0  0  0  0
    7.5686    0.5330   62.5261 C   0  0  0  0  0
    7.4759   -0.4999   61.4123 C   0  0  0  0  0
    5.9954   -0.6035   61.0594 C   0  0  0  0  0
    5.2446   -0.0754   62.2692 C   0  0  0  0  0
    5.9759    0.9599   64.4459 C   0  0  0  0  0
    6.6679    2.1014   65.1341 C   0  0  0  0  0
    6.4218    3.4227   64.4180 C   0  0  0  0  0
    4.9839    3.8755   64.6345 C   0  0  0  0  0
    4.7378    5.1729   63.9455 C   0  0  0  0  0
    0.1370   10.1229   45.7927 O   0  0  0  0  0
    1.1443   12.8822   42.3286 O   0  0  0  0  0
   -1.3120   14.2954   42.0296 O   0  0  0  0  0
    2.1141    7.3075   48.2154 O   0  0  0  0  0
    5.8883    4.3119   47.2219 O   0  0  0  0  0
    6.0044    5.1931   50.9006 O   0  0  0  0  0
    6.3379    6.8642   53.2404 O   0  0  0  0  0
    5.3078    3.3050   55.9339 O   0  0  0  0  0
    2.2349    6.3380   59.8377 O   0  0  0  0  0
    2.5188    4.0670   59.9127 O   0  0  0  0  0
    6.7901    5.6284   59.3529 O   0  0  0  0  0
    9.2210    2.2284   62.2411 O   0  0  0  0  0
    5.1468    0.2691   65.1074 O   0  0  0  0  0
    4.4919    6.2057   64.6245 O   0  0  0  0  0
    4.7614    5.2505   62.5571 O   0  0  0  0  0
    1.9486   10.2839   44.3163 N   0  0  0  0  0
    1.4689    9.8402   38.7049 N   0  0  0  0  0
   -0.2510   12.4549   44.1587 N   0  0  0  0  0
   -3.1042   14.3410   43.5036 N   0  0  0  0  0
    3.0750    8.5824   46.5086 N   0  0  0  0  0
   -0.8499    7.0131   45.0942 N   0  0  0  0  0
    3.8715    5.2257   47.9669 N   0  0  0  0  0
    4.3034    3.6939   50.3319 N   0  0  0  0  0
    5.0297    4.9618   53.6370 N   0  0  0  0  0
    6.0901    5.4634   56.3989 N   0  0  0  0  0
    5.5021    3.6909   59.0595 N   0  0  0  0  0
    7.2258    2.5857   61.0719 N   0  0  0  0  0
    6.2210    0.6519   63.0636 N   0  0  0  0  0
    8.0923    1.8506   65.2450 N   0  0  0  0  0
  2  1  1  0  0  0
  2  3  1  0  0  0
  2 70  1  0  0  0
  3 66  1  0  0  0
  4 66  1  0  0  0
  4  5  1  0  0  0
  4  9  1  0  0  0
  5  6  1  0  0  0
  6  7  1  0  0  0
  7  8  1  0  0  0
  8 67  1  0  0  0
  9 68  1  0  0  0
 10 68  1  0  0  0
 10 11  1  0  0  0
 10 14  1  0  0  0
 11 12  1  0  0  0
 11 13  1  0  0  0
 14 69  1  0  0  0
 16 15  1  0  0  0
 16 17  1  0  0  0
 16 72  1  0  0  0
 17 18  1  0  0  0
 18 19  1  0  0  0
 19 20  1  0  0  0
 20 71  1  0  0  0
 22 21  1  0  0  0
 22 73  1  0  0  0
 24 23  1  0  0  0
 24 25  1  0  0  0
 24 74  1  0  0  0
 25 26  1  0  0  0
 26 27  1  0  0  0
 26 28  1  0  0  0
 30 29  1  0  0  0
 30 31  1  0  0  0
 30 75  1  0  0  0
 33 32  1  0  0  0
 33 34  1  0  0  0
 33 76  1  0  0  0
 34 35  1  0  0  0
 35 60  1  0  0  0
 37 36  1  0  0  0
 37 38  1  0  0  0
 37 77  1  0  0  0
 38 39  1  0  0  0
 38 40  1  0  0  0
 42 41  1  0  0  0
 42 43  1  0  0  0
 42 78  1  0  0  0
 43 44  1  0  0  0
 44 45  1  0  0  0
 45 78  1  0  0  0
 47 46  1  0  0  0
 47 48  1  0  0  0
 47 79  1  0  0  0
 48 49  1  0  0  0
 49 50  1  0  0  0
 50 65  1  0  0  0
 70 15  1  0  0  0
 72 21  1  0  0  0
 73 23  1  0  0  0
 74 29  1  0  0  0
 75 32  1  0  0  0
 76 36  1  0  0  0
 77 41  1  0  0  0
 78 46  1  0  0  0
  3 51  2  0  0  0
  9 52  2  0  0  0
 14 53  2  0  0  0
 15 54  2  0  0  0
 21 55  2  0  0  0
 23 56  2  0  0  0
 29 57  2  0  0  0
 32 58  2  0  0  0
 35 59  2  0  0  0
 36 61  2  0  0  0
 41 62  2  0  0  0
 46 63  2  0  0  0
 50 64  2  0  0  0
M  END
> <rmsd>
0.864919245

$$$$
MolPort-023-276-154


 79 78  0  0  0  0  0  0  0  0999 V2000
   -4.1667    9.7684   49.4383 C   0  0  0  0  0
   -1.5571    9.7346   49.7626 C   0  0  0  0  0
   -1.3409   11.2441   49.7895 C   0  0  0  0  0
   -0.0857   11.6944   49.0294 C   0  0  0  0  0
   -1.0019   11.7805   46.6602 C   0  0  0  0  0
   -0.8476   11.4102   45.2199 C   0  0  0  0  0
   -0.6284    9.9156   45.0306 C   0  0  0  0  0
   -1.9505    9.1660   45.0543 C   0  0  0  0  0
   -2.7173    9.4052   43.7625 C   0  0  0  0  0
   -4.0469    7.2438   43.6769 C   0  0  0  0  0
    0.0486   13.2850   43.8061 C   0  0  0  0  0
    1.2274   14.0286   43.2653 C   0  0  0  0  0
    1.2871   15.4348   43.8494 C   0  0  0  0  0
    2.1673   15.4724   45.0868 C   0  0  0  0  0
    1.4458   14.8874   46.2934 C   0  0  0  0  0
    2.3419   14.9316   47.5178 C   0  0  0  0  0
    1.2096   11.3001   49.6792 C   0  0  0  0  0
    1.6030    8.9894   50.6439 C   0  0  0  0  0
    2.9747    8.8180   50.0024 C   0  0  0  0  0
    2.8190    8.6541   48.5018 C   0  0  0  0  0
    4.1772    8.6502   47.8151 C   0  0  0  0  0
    4.6751   10.0664   47.5728 C   0  0  0  0  0
    1.5684    8.3392   51.9854 C   0  0  0  0  0
    2.6017    8.0668   54.2944 C   0  0  0  0  0
    2.7385    6.5358   54.2751 C   0  0  0  0  0
    4.1099    6.0727   53.8031 C   0  0  0  0  0
    2.4168    5.9364   55.6265 C   0  0  0  0  0
    3.6668    8.7299   55.1254 C   0  0  0  0  0
    4.7072    8.9000   57.4052 C   0  0  0  0  0
    4.3135    9.6025   58.6882 C   0  0  0  0  0
    5.2897    7.5572   57.6950 C   0  0  0  0  0
    7.1894    5.9177   57.3492 C   0  0  0  0  0
    8.4257    5.8222   56.4613 C   0  0  0  0  0
    8.7187    4.3811   56.0618 C   0  0  0  0  0
    7.7018    3.8655   55.0525 C   0  0  0  0  0
    6.5015    3.2747   55.7758 C   0  0  0  0  0
    7.5080    5.5660   58.7775 C   0  0  0  0  0
    7.3175    6.1730   61.2341 C   0  0  0  0  0
    7.6336    7.4152   62.0566 C   0  0  0  0  0
    5.9844    5.5659   61.5895 C   0  0  0  0  0
    4.3630    3.5989   61.2523 C   0  0  0  0  0
    4.2109    3.2073   62.7144 C   0  0  0  0  0
    3.1964    4.3839   60.7394 C   0  0  0  0  0
    1.3570    6.0846   61.1515 C   0  0  0  0  0
    0.5564    6.5620   62.3552 C   0  0  0  0  0
   -0.8213    7.0730   61.9537 C   0  0  0  0  0
   -0.7833    8.5293   61.6285 C   0  0  0  0  0
    1.8904    7.2367   60.3537 C   0  0  0  0  0
   -2.7268    9.2709   48.4525 S   0  0  0  0  0
   -0.0972   11.2550   47.6380 N   0  0  0  0  0
   -3.9732    8.6706   43.7768 N   0  0  0  0  0
   -5.3130    6.5998   43.7357 N   0  0  0  0  0
   -2.9744    6.5372   43.5281 N   0  0  0  0  0
    0.2623   12.1472   44.6398 N   0  0  0  0  0
    1.1386   14.1028   41.8173 N   0  0  0  0  0
    3.5006   14.0723   47.3227 N   0  0  0  0  0
    1.2481   10.3983   50.7840 N   0  0  0  0  0
    5.2678   10.6032   48.7850 N   0  0  0  0  0
    2.6028    8.6043   52.9387 N   0  0  0  0  0
    3.5423    8.7366   56.5485 N   0  0  0  0  0
    6.6050    7.2501   57.2322 N   0  0  0  0  0
    5.5105    2.8493   54.8039 N   0  0  0  0  0
    7.3324    6.5299   59.8219 N   0  0  0  0  0
    5.6227    4.3003   61.0218 N   0  0  0  0  0
    2.4553    5.2439   61.6106 N   0  0  0  0  0
   -0.4301    9.4784   62.6278 N   0  0  0  0  0
   -1.8855   12.6182   46.9895 O   0  0  0  0  0
   -1.1236   13.6763   43.5488 O   0  0  0  0  0
    2.2822   11.7947   49.2537 O   0  0  0  0  0
    0.5859    7.6075   52.2982 O   0  0  0  0  0
    4.6862    9.2371   54.5738 O   0  0  0  0  0
    4.6084    6.6926   58.3174 O   0  0  0  0  0
    7.8838    4.3943   59.0559 O   0  0  0  0  0
    7.8919    7.0624   63.3796 O   0  0  0  0  0
    5.1903    6.1620   62.3687 O   0  0  0  0  0
    2.8844    4.2908   59.5232 O   0  0  0  0  0
   -1.0737    8.9210   60.4691 O   0  0  0  0  0
    1.5386    7.3647   59.0165 O   0  0  0  0  0
    2.6610    8.0835   60.8810 O   0  0  0  0  0
  1 49  1  0  0  0
  2 49  1  0  0  0
  2  3  1  0  0  0
  4  3  1  0  0  0
  4 50  1  0  0  0
  4 17  1  0  0  0
  6  5  1  0  0  0
  6  7  1  0  0  0
  6 54  1  0  0  0
  7  8  1  0  0  0
  8  9  1  0  0  0
  9 51  1  0  0  0
 10 52  1  0  0  0
 12 11  1  0  0  0
 12 55  1  0  0  0
 12 13  1  0  0  0
 13 14  1  0  0  0
 14 15  1  0  0  0
 15 16  1  0  0  0
 16 56  1  0  0  0
 17 57  1  0  0  0
 18 57  1  0  0  0
 18 19  1  0  0  0
 18 23  1  0  0  0
 19 20  1  0  0  0
 20 21  1  0  0  0
 21 22  1  0  0  0
 22 58  1  0  0  0
 23 59  1  0  0  0
 24 59  1  0  0  0
 24 25  1  0  0  0
 24 28  1  0  0  0
 25 26  1  0  0  0
 25 27  1  0  0  0
 28 60  1  0  0  0
 29 60  1  0  0  0
 29 30  1  0  0  0
 29 31  1  0  0  0
 31 61  1  0  0  0
 32 61  1  0  0  0
 32 33  1  0  0  0
 32 37  1  0  0  0
 33 34  1  0  0  0
 34 35  1  0  0  0
 35 36  1  0  0  0
 36 62  1  0  0  0
 37 63  1  0  0  0
 38 63  1  0  0  0
 38 39  1  0  0  0
 38 40  1  0  0  0
 39 74  1  0  0  0
 40 64  1  0  0  0
 41 64  1  0  0  0
 41 42  1  0  0  0
 41 43  1  0  0  0
 43 65  1  0  0  0
 44 65  1  0  0  0
 44 45  1  0  0  0
 44 48  1  0  0  0
 45 46  1  0  0  0
 46 47  1  0  0  0
 47 66  1  0  0  0
 48 78  1  0  0  0
 50  5  1  0  0  0
 51 10  1  0  0  0
 54 11  1  0  0  0
  5 67  2  0  0  0
 10 53  2  0  0  0
 11 68  2  0  0  0
 17 69  2  0  0  0
 23 70  2  0  0  0
 28 71  2  0  0  0
 31 72  2  0  0  0
 37 73  2  0  0  0
 40 75  2  0  0  0
 43 76  2  0  0  0
 47 77  2  0  0  0
 48 79  2  0  0  0
M  END
> <rmsd>
0.612364233

$$$$
MolPort-023-276-154


 79 78  0  0  0  0  0  0  0  0999 V2000
   -5.2928    9.2322   50.7818 C   0  0  0  0  0
   -2.6663    9.3631   50.8096 C   0  0  0  0  0
   -2.5438   10.8829   50.8460 C   0  0  0  0  0
   -1.4139   11.4254   49.9599 C   0  0  0  0  0
   -2.5973   11.4879   47.7114 C   0  0  0  0  0
   -2.5849   11.1506   46.2549 C   0  0  0  0  0
   -2.2951    9.6764   46.0084 C   0  0  0  0  0
   -3.5562    8.8421   46.1639 C   0  0  0  0  0
   -4.4784    9.0507   44.9723 C   0  0  0  0  0
   -5.6706    6.8090   44.9882 C   0  0  0  0  0
   -1.9749   13.1010   44.7918 C   0  0  0  0  0
   -0.9144   13.9278   44.1387 C   0  0  0  0  0
   -0.8771   15.3259   44.7439 C   0  0  0  0  0
    0.1340   15.4017   45.8750 C   0  0  0  0  0
   -0.4073   14.7527   47.1416 C   0  0  0  0  0
    0.6176   14.8363   48.2580 C   0  0  0  0  0
   -0.0309   11.1063   50.4508 C   0  0  0  0  0
    0.6141    8.8115   51.3127 C   0  0  0  0  0
    1.9120    8.7395   50.5172 C   0  0  0  0  0
    1.5972    8.5887   49.0403 C   0  0  0  0  0
    2.8660    8.6837   48.2053 C   0  0  0  0  0
    3.2432   10.1328   47.9404 C   0  0  0  0  0
    0.7732    8.1401   52.6345 C   0  0  0  0  0
    2.0775    7.9001   54.8059 C   0  0  0  0  0
    2.3072    6.3818   54.7368 C   0  0  0  0  0
    3.6424    6.0161   54.1032 C   0  0  0  0  0
    2.1796    5.7422   56.1020 C   0  0  0  0  0
    3.1864    8.6183   55.5265 C   0  0  0  0  0
    4.4667    8.8209   57.6780 C   0  0  0  0  0
    4.1781    9.4766   59.0127 C   0  0  0  0  0
    5.1615    7.5145   57.8700 C   0  0  0  0  0
    7.1089    6.0074   57.2758 C   0  0  0  0  0
    8.2397    6.0060   56.2525 C   0  0  0  0  0
    8.5753    4.5934   55.7902 C   0  0  0  0  0
    7.4847    4.0282   54.8903 C   0  0  0  0  0
    6.4140    3.3497   55.7306 C   0  0  0  0  0
    7.6093    5.6554   58.6508 C   0  0  0  0  0
    7.6617    6.2111   61.1264 C   0  0  0  0  0
    7.9906    7.4586   61.9359 C   0  0  0  0  0
    6.4185    5.5133   61.6158 C   0  0  0  0  0
    4.8961    3.4504   61.4188 C   0  0  0  0  0
    4.9362    3.0275   62.8796 C   0  0  0  0  0
    3.6317    4.1657   61.0584 C   0  0  0  0  0
    1.7479    5.7367   61.7131 C   0  0  0  0  0
    1.0610    6.1426   63.0096 C   0  0  0  0  0
   -0.3829    6.5690   62.7773 C   0  0  0  0  0
   -0.4736    8.0295   62.4828 C   0  0  0  0  0
    2.1137    6.9331   60.8865 C   0  0  0  0  0
   -3.9460    8.8444   49.6293 S   0  0  0  0  0
   -1.5560   11.0075   48.5690 N   0  0  0  0  0
   -5.6759    8.2359   45.1112 N   0  0  0  0  0
   -6.8788    6.0832   45.1745 N   0  0  0  0  0
   -4.5797    6.1760   44.7037 N   0  0  0  0  0
   -1.5967   11.9669   45.5703 N   0  0  0  0  0
   -1.1718   14.0182   42.7119 N   0  0  0  0  0
    1.7983   14.0572   47.9145 N   0  0  0  0  0
    0.1896   10.1921   51.5236 N   0  0  0  0  0
    3.9349   10.6884   49.0901 N   0  0  0  0  0
    1.8906    8.4573   53.4711 N   0  0  0  0  0
    3.2244    8.5952   56.9544 N   0  0  0  0  0
    6.4323    7.3007   57.2553 N   0  0  0  0  0
    5.3476    2.8756   54.8671 N   0  0  0  0  0
    7.4934    6.5898   59.7298 N   0  0  0  0  0
    6.0748    4.2357   61.0640 N   0  0  0  0  0
    2.9420    4.9622   62.0266 N   0  0  0  0  0
   -0.0695    8.9841   63.4572 N   0  0  0  0  0
   -3.4887   12.2613   48.1568 O   0  0  0  0  0
   -3.1910   13.4191   44.6769 O   0  0  0  0  0
    0.9530   11.6760   49.9185 O   0  0  0  0  0
   -0.1194    7.3413   53.0394 O   0  0  0  0  0
    4.1025    9.1991   54.8753 O   0  0  0  0  0
    4.6112    6.5980   58.5456 O   0  0  0  0  0
    8.0873    4.5065   58.8587 O   0  0  0  0  0
    8.4194    7.1032   63.2131 O   0  0  0  0  0
    5.6823    6.0445   62.4926 O   0  0  0  0  0
    3.1900    4.0710   59.8832 O   0  0  0  0  0
   -0.9181    8.4192   61.3726 O   0  0  0  0  0
    1.6047    7.0584   59.6006 O   0  0  0  0  0
    2.8844    7.8200   61.3427 O   0  0  0  0  0
  1 49  1  0  0  0
  2 49  1  0  0  0
  2  3  1  0  0  0
  4  3  1  0  0  0
  4 50  1  0  0  0
  4 17  1  0  0  0
  6  5  1  0  0  0
  6  7  1  0  0  0
  6 54  1  0  0  0
  7  8  1  0  0  0
  8  9  1  0  0  0
  9 51  1  0  0  0
 10 52  1  0  0  0
 12 11  1  0  0  0
 12 55  1  0  0  0
 12 13  1  0  0  0
 13 14  1  0  0  0
 14 15  1  0  0  0
 15 16  1  0  0  0
 16 56  1  0  0  0
 17 57  1  0  0  0
 18 57  1  0  0  0
 18 19  1  0  0  0
 18 23  1  0  0  0
 19 20  1  0  0  0
 20 21  1  0  0  0
 21 22  1  0  0  0
 22 58  1  0  0  0
 23 59  1  0  0  0
 24 59  1  0  0  0
 24 25  1  0  0  0
 24 28  1  0  0  0
 25 26  1  0  0  0
 25 27  1  0  0  0
 28 60  1  0  0  0
 29 60  1  0  0  0
 29 30  1  0  0  0
 29 31  1  0  0  0
 31 61  1  0  0  0
 32 61  1  0  0  0
 32 33  1  0  0  0
 32 37  1  0  0  0
 33 34  1  0  0  0
 34 35  1  0  0  0
 35 36  1  0  0  0
 36 62  1  0  0  0
 37 63  1  0  0  0
 38 63  1  0  0  0
 38 39  1  0  0  0
 38 40  1  0  0  0
 39 74  1  0  0  0
 40 64  1  0  0  0
 41 64  1  0  0  0
 41 42  1  0  0  0
 41 43  1  0  0  0
 43 65  1  0  0  0
 44 65  1  0  0  0
 44 45  1  0  0  0
 44 48  1  0  0  0
 45 46  1  0  0  0
 46 47  1  0  0  0
 47 66  1  0  0  0
 48 78  1  0  0  0
 50  5  1  0  0  0
 51 10  1  0  0  0
 54 11  1  0  0  0
  5 67  2  0  0  0
 10 53  2  0  0  0
 11 68  2  0  0  0
 17 69  2  0  0  0
 23 70  2  0  0  0
 28 71  2  0  0  0
 31 72  2  0  0  0
 37 73  2  0  0  0
 40 75  2  0  0  0
 43 76  2  0  0  0
 47 77  2  0  0  0
 48 79  2  0  0  0
M  END
> <rmsd>
0.531240344

$$$$
MolPort-023-276-154


 79 78  0  0  0  0  0  0  0  0999 V2000
   -4.1938    9.1791   48.5767 C   0  0  0  0  0
   -1.6250    9.3592   49.1105 C   0  0  0  0  0
   -1.5494   10.8792   49.2114 C   0  0  0  0  0
   -0.2850   11.4710   48.5733 C   0  0  0  0  0
   -1.0186   11.5821   46.1424 C   0  0  0  0  0
   -0.7201   11.2914   44.7065 C   0  0  0  0  0
   -0.3521    9.8316   44.4798 C   0  0  0  0  0
   -1.5985    8.9689   44.3679 C   0  0  0  0  0
   -2.2813    9.1974   43.0279 C   0  0  0  0  0
   -3.3985    6.9339   42.7536 C   0  0  0  0  0
    0.1094   13.2985   43.4414 C   0  0  0  0  0
    1.2542   14.1657   43.0264 C   0  0  0  0  0
    1.1405   15.5444   43.6658 C   0  0  0  0  0
    1.9149   15.6036   44.9712 C   0  0  0  0  0
    1.1581   14.9045   46.0924 C   0  0  0  0  0
    1.9487   14.9724   47.3863 C   0  0  0  0  0
    0.9864   11.1630   49.3110 C   0  0  0  0  0
    1.5118    8.8548   50.2172 C   0  0  0  0  0
    2.9390    8.8329   49.6833 C   0  0  0  0  0
    2.9158    8.7230   48.1700 C   0  0  0  0  0
    4.3178    8.8685   47.5963 C   0  0  0  0  0
    4.7025   10.3323   47.4485 C   0  0  0  0  0
    1.4323    8.1450   51.5261 C   0  0  0  0  0
    2.3038    7.8613   53.8996 C   0  0  0  0  0
    2.5800    6.3506   53.8342 C   0  0  0  0  0
    4.0202    6.0307   53.4582 C   0  0  0  0  0
    2.2101    5.6657   55.1316 C   0  0  0  0  0
    3.2365    8.5773   54.8387 C   0  0  0  0  0
    4.0772    8.7361   57.2003 C   0  0  0  0  0
    3.5229    9.3435   58.4725 C   0  0  0  0  0
    4.7548    7.4378   57.4860 C   0  0  0  0  0
    6.8166    5.9877   57.2346 C   0  0  0  0  0
    8.1216    6.0404   56.4472 C   0  0  0  0  0
    8.5743    4.6498   56.0190 C   0  0  0  0  0
    7.6898    4.0927   54.9118 C   0  0  0  0  0
    6.4956    3.3675   55.5125 C   0  0  0  0  0
    7.0540    5.6020   58.6698 C   0  0  0  0  0
    6.6191    6.0798   61.1238 C   0  0  0  0  0
    6.7563    7.3071   62.0153 C   0  0  0  0  0
    5.3231    5.3433   61.3467 C   0  0  0  0  0
    3.9179    3.2589   60.8053 C   0  0  0  0  0
    3.6890    2.7907   62.2346 C   0  0  0  0  0
    2.7282    3.9609   60.2292 C   0  0  0  0  0
    0.7156    5.4742   60.5538 C   0  0  0  0  0
   -0.2160    5.8255   61.7054 C   0  0  0  0  0
   -1.5991    6.2314   61.2127 C   0  0  0  0  0
   -1.6682    7.6986   60.9465 C   0  0  0  0  0
    1.2026    6.7029   59.8457 C   0  0  0  0  0
   -2.6426    8.8539   47.6932 S   0  0  0  0  0
   -0.1486   11.0948   47.1700 N   0  0  0  0  0
   -3.4627    8.3559   42.9125 N   0  0  0  0  0
   -4.6018    6.1797   42.6851 N   0  0  0  0  0
   -2.2581    6.3313   42.6661 N   0  0  0  0  0
    0.3600   12.1477   44.2465 N   0  0  0  0  0
    1.2717   14.2964   41.5799 N   0  0  0  0  0
    3.1922   14.2272   47.2540 N   0  0  0  0  0
    1.0207   10.2196   50.3807 N   0  0  0  0  0
    5.1481   10.8643   48.7241 N   0  0  0  0  0
    2.3613    8.4568   52.5696 N   0  0  0  0  0
    3.0019    8.5097   56.2463 N   0  0  0  0  0
    6.1245    7.2679   57.1204 N   0  0  0  0  0
    5.6257    2.9008   54.4480 N   0  0  0  0  0
    6.7111    6.4993   59.7319 N   0  0  0  0  0
    5.1228    4.0774   60.7045 N   0  0  0  0  0
    1.8468    4.7131   61.0689 N   0  0  0  0  0
   -1.4812    8.6294   62.0061 N   0  0  0  0  0
   -1.9975   12.3238   46.4299 O   0  0  0  0  0
   -1.0700   13.5968   43.1046 O   0  0  0  0  0
    2.0394   11.7680   48.9929 O   0  0  0  0  0
    0.4989    7.3169   51.7304 O   0  0  0  0  0
    4.2454    9.1959   54.3912 O   0  0  0  0  0
    4.1086    6.4899   58.0182 O   0  0  0  0  0
    7.5119    4.4564   58.9338 O   0  0  0  0  0
    6.9422    6.9196   63.3407 O   0  0  0  0  0
    4.4201    5.8323   62.0805 O   0  0  0  0  0
    2.5214    3.8952   58.9890 O   0  0  0  0  0
   -1.9021    8.1146   59.7828 O   0  0  0  0  0
    0.9455    6.8591   58.4901 O   0  0  0  0  0
    1.8499    7.5895   60.4653 O   0  0  0  0  0
  1 49  1  0  0  0
  2 49  1  0  0  0
  2  3  1  0  0  0
  4  3  1  0  0  0
  4 50  1  0  0  0
  4 17  1  0  0  0
  6  5  1  0  0  0
  6  7  1  0  0  0
  6 54  1  0  0  0
  7  8  1  0  0  0
  8  9  1  0  0  0
  9 51  1  0  0  0
 10 52  1  0  0  0
 12 11  1  0  0  0
 12 55  1  0  0  0
 12 13  1  0  0  0
 13 14  1  0  0  0
 14 15  1  0  0  0
 15 16  1  0  0  0
 16 56  1  0  0  0
 17 57  1  0  0  0
 18 57  1  0  0  0
 18 19  1  0  0  0
 18 23  1  0  0  0
 19 20  1  0  0  0
 20 21  1  0  0  0
 21 22  1  0  0  0
 22 58  1  0  0  0
 23 59  1  0  0  0
 24 59  1  0  0  0
 24 25  1  0  0  0
 24 28  1  0  0  0
 25 26  1  0  0  0
 25 27  1  0  0  0
 28 60  1  0  0  0
 29 60  1  0  0  0
 29 30  1  0  0  0
 29 31  1  0  0  0
 31 61  1  0  0  0
 32 61  1  0  0  0
 32 33  1  0  0  0
 32 37  1  0  0  0
 33 34  1  0  0  0
 34 35  1  0  0  0
 35 36  1  0  0  0
 36 62  1  0  0  0
 37 63  1  0  0  0
 38 63  1  0  0  0
 38 39  1  0  0  0
 38 40  1  0  0  0
 39 74  1  0  0  0
 40 64  1  0  0  0
 41 64  1  0  0  0
 41 42  1  0  0  0
 41 43  1  0  0  0
 43 65  1  0  0  0
 44 65  1  0  0  0
 44 45  1  0  0  0
 44 48  1  0  0  0
 45 46  1  0  0  0
 46 47  1  0  0  0
 47 66  1  0  0  0
 48 78  1  0  0  0
 50  5  1  0  0  0
 51 10  1  0  0  0
 54 11  1  0  0  0
  5 67  2  0  0  0
 10 53  2  0  0  0
 11 68  2  0  0  0
 17 69  2  0  0  0
 23 70  2  0  0  0
 28 71  2  0  0  0
 31 72  2  0  0  0
 37 73  2  0  0  0
 40 75  2  0  0  0
 43 76  2  0  0  0
 47 77  2  0  0  0
 48 79  2  0  0  0
M  END
> <rmsd>
0.534255385

$$$$
MolPort-000-661-686 6142698 LN01104888 MCULE-3926704925 PubChem-4186538 ZINC000006142698 ZINC06142698


 38 40  0  0  0  0  0  0  0  0999 V2000
    8.9514    4.2494   55.3952 C   0  0  0  0  0
    7.5823    3.8300   54.8877 C   0  0  0  0  0
    6.4664    4.3026   55.7683 C   0  0  0  0  0
    4.9463    5.2098   57.3868 C   0  0  0  0  0
    1.8180    6.4921   57.1561 C   0  0  0  0  0
    2.0380    7.8300   56.8136 C   0  0  0  0  0
    1.4740    8.3561   55.6484 C   0  0  0  0  0
    0.6859    7.5480   54.8141 C   0  0  0  0  0
    0.1798    9.3911   53.0999 C   0  0  0  0  0
   -0.4743    9.7304   51.8235 C   0  0  0  0  0
   -1.1600    8.7475   51.0952 C   0  0  0  0  0
   -1.7772    9.0673   49.8830 C   0  0  0  0  0
   -1.7179   10.3743   49.3890 C   0  0  0  0  0
   -1.0324   11.3582   50.1087 C   0  0  0  0  0
   -0.4147   11.0383   51.3207 C   0  0  0  0  0
   -0.2872   11.5407   46.6506 C   0  0  0  0  0
    1.0864   10.8921   46.6395 C   0  0  0  0  0
    1.4201   10.4253   45.2905 C   0  0  0  0  0
   -1.9963   10.5502   45.2590 C   0  0  0  0  0
   -2.6368   11.8952   44.9100 C   0  0  0  0  0
   -1.7185   12.7019   44.1034 C   0  0  0  0  0
    0.4747    6.2084   55.1592 C   0  0  0  0  0
    1.0374    5.6812   56.3249 C   0  0  0  0  0
    5.1688    4.0358   55.4965 N   0  0  0  0  0
    4.3231    4.5383   56.3946 N   0  0  0  0  0
    4.2673    5.8453   58.4686 N   0  0  0  0  0
    0.0937    8.0506   53.6086 N   0  0  0  0  0
   -1.3291   10.5214   46.5695 N   0  0  0  0  0
    1.6829   10.0569   44.2251 N   0  0  0  0  0
   -0.9949   13.3429   43.4669 N   0  0  0  0  0
    2.5421    5.8323   58.6120 S   0  0  0  0  0
   -2.4747   10.7717   47.8562 S   0  0  0  0  0
    6.6148    5.2090   57.1907 S   0  0  0  0  0
    2.1333    6.6757   59.7872 O   0  0  0  0  0
    2.0704    4.4222   58.8387 O   0  0  0  0  0
    0.8071   10.2807   53.7369 O   0  0  0  0  0
   -3.6724    9.8841   47.6537 O   0  0  0  0  0
   -2.9335   12.2048   47.8863 O   0  0  0  0  0
  1  2  1  0  0  0
  2  3  1  0  0  0
  3 33  1  0  0  0
  4 26  1  0  0  0
  4 33  1  0  0  0
  6  7  1  0  0  0
  8 27  1  0  0  0
  8 22  1  0  0  0
  9 10  1  0  0  0
 11 12  1  0  0  0
 13 14  1  0  0  0
 15 10  1  0  0  0
 16 28  1  0  0  0
 16 17  1  0  0  0
 17 18  1  0  0  0
 19 28  1  0  0  0
 19 20  1  0  0  0
 20 21  1  0  0  0
 23  5  1  0  0  0
 24 25  1  0  0  0
 27  9  1  0  0  0
 31 26  1  0  0  0
 31  5  1  0  0  0
 32 13  1  0  0  0
 32 28  1  0  0  0
  3 24  2  0  0  0
  4 25  2  0  0  0
  5  6  2  0  0  0
  7  8  2  0  0  0
  9 36  2  0  0  0
 10 11  2  0  0  0
 12 13  2  0  0  0
 14 15  2  0  0  0
 22 23  2  0  0  0
 31 34  2  0  0  0
 31 35  2  0  0  0
 32 37  2  0  0  0
 32 38  2  0  0  0
 18 29  3  0  0  0
 21 30  3  0  0  0
M  END
> <rmsd>
0.774076939

$$$$
MolPort-051-487-933


 93100  0  0  0  0  0  0  0  0999 V2000
    0.7373   11.4541   43.6427 C   0  0  0  0  0
   -0.2586   11.1662   42.5332 C   0  0  0  0  0
   -2.0863   12.6061   43.2276 C   0  0  0  0  0
   -3.5174   12.7598   43.6407 C   0  0  0  0  0
   -4.2810   13.5248   42.5715 C   0  0  0  0  0
   -4.4283   14.9503   43.0887 C   0  0  0  0  0
   -4.1907   14.8801   44.5883 C   0  0  0  0  0
   -3.3730   13.0798   46.1631 C   0  0  0  0  0
   -2.9551   11.6591   46.3742 C   0  0  0  0  0
   -4.1771   10.8079   46.6897 C   0  0  0  0  0
   -3.8911    9.3256   46.4767 C   0  0  0  0  0
   -3.5562    9.0241   45.0220 C   0  0  0  0  0
   -4.6421    9.1944   42.7495 C   0  0  0  0  0
   -0.8713   10.9178   47.3391 C   0  0  0  0  0
    0.1132   10.9373   48.4672 C   0  0  0  0  0
    0.8356   12.2815   48.5776 C   0  0  0  0  0
    1.6533   12.6272   47.3402 C   0  0  0  0  0
    2.8891   13.3937   47.7624 C   0  0  0  0  0
    0.8275   13.4919   46.4071 C   0  0  0  0  0
    1.1958    8.9063   49.2244 C   0  0  0  0  0
    2.2082    7.8197   49.0366 C   0  0  0  0  0
    2.1724    7.2883   47.6082 C   0  0  0  0  0
    2.5863    5.8543   47.5542 C   0  0  0  0  0
    1.8846    4.7682   48.0633 C   0  0  0  0  0
    3.6510    3.9859   47.1235 C   0  0  0  0  0
    4.6546    3.1498   46.6403 C   0  0  0  0  0
    5.7367    3.7452   45.9694 C   0  0  0  0  0
    5.7905    5.1452   45.7984 C   0  0  0  0  0
    4.7622    5.9655   46.2972 C   0  0  0  0  0
    3.7057    5.3408   46.9547 C   0  0  0  0  0
    4.2747    7.9739   50.3575 C   0  0  0  0  0
    3.8545    6.9270   51.3557 C   0  0  0  0  0
    3.8754    5.5309   50.7470 C   0  0  0  0  0
    5.2659    4.9885   50.7096 C   0  0  0  0  0
    5.9021    4.7802   49.4805 C   0  0  0  0  0
    7.1978    4.2583   49.4379 C   0  0  0  0  0
    7.8613    3.9417   50.6273 C   0  0  0  0  0
    7.2293    4.1454   51.8581 C   0  0  0  0  0
    5.9340    4.6675   51.8989 C   0  0  0  0  0
    2.2773    7.3086   53.1823 C   0  0  0  0  0
    3.3095    7.0740   54.2522 C   0  0  0  0  0
    4.4240    8.1135   54.2019 C   0  0  0  0  0
    4.3520    5.0623   55.1436 C   0  0  0  0  0
    4.3898    5.6490   56.5240 C   0  0  0  0  0
    5.8147    6.0013   56.9682 C   0  0  0  0  0
    6.6852    4.8002   57.1844 C   0  0  0  0  0
    6.5977    3.8806   58.2235 C   0  0  0  0  0
    8.2587    3.2815   56.9999 C   0  0  0  0  0
    9.3616    2.6154   56.4643 C   0  0  0  0  0
    9.9442    3.1452   55.2968 C   0  0  0  0  0
    9.4102    4.3045   54.6951 C   0  0  0  0  0
    8.2996    4.9597   55.2589 C   0  0  0  0  0
    7.7544    4.4134   56.4182 C   0  0  0  0  0
    3.0937    5.1841   58.5292 C   0  0  0  0  0
    3.0086    6.6481   58.8658 C   0  0  0  0  0
    4.1914    7.1097   59.7271 C   0  0  0  0  0
    4.2856    6.3838   61.0310 C   0  0  0  0  0
    5.3007    5.5310   61.3878 C   0  0  0  0  0
    3.8572    5.6543   62.9715 C   0  0  0  0  0
    1.1935    8.1451   59.5070 C   0  0  0  0  0
    1.8564    9.3143   58.8389 C   0  0  0  0  0
    2.2357   10.3690   59.8775 C   0  0  0  0  0
    1.4605   11.6197   59.4874 C   0  0  0  0  0
    0.7234   11.1840   58.2826 C   0  0  0  0  0
   -1.6224   11.4165   42.9871 N   0  0  0  0  0
   -3.6126   13.5760   44.8375 N   0  0  0  0  0
   -4.7019    9.3075   44.1694 N   0  0  0  0  0
   -5.7970    9.4958   41.9729 N   0  0  0  0  0
   -3.5519    8.8256   42.1603 N   0  0  0  0  0
   -1.9827   11.5740   47.4549 N   0  0  0  0  0
    1.0789    9.8506   48.3376 N   0  0  0  0  0
    2.5490    3.6133   47.7986 N   0  0  0  0  0
    3.5368    8.3386   49.3459 N   0  0  0  0  0
    2.5394    7.2262   51.9109 N   0  0  0  0  0
    3.8537    5.7250   54.1435 N   0  0  0  0  0
    7.5738    2.9436   58.1041 N   0  0  0  0  0
    3.7209    4.7659   57.4722 N   0  0  0  0  0
    5.0225    5.0691   62.6195 N   0  0  0  0  0
    3.3753    6.4709   62.0150 N   0  0  0  0  0
    1.7300    6.9631   59.4993 N   0  0  0  0  0
    0.9298    9.9645   57.9317 N   0  0  0  0  0
   -1.2802   13.7339   43.0678 O   0  0  0  0  0
   -3.5770   13.8266   47.1588 O   0  0  0  0  0
   -0.5761   10.2268   46.1674 O   0  0  0  0  0
    0.4095    8.9087   50.3753 O   0  0  0  0  0
    5.5187    8.5666   50.5258 O   0  0  0  0  0
    9.1449    3.4166   50.5880 O   0  0  0  0  0
    0.9848    7.6195   53.5774 O   0  0  0  0  0
    3.9410    9.3483   54.6366 O   0  0  0  0  0
    4.8461    3.7816   54.9269 O   0  0  0  0  0
    2.5134    4.2504   59.3788 O   0  0  0  0  0
   -0.0252    8.3310   60.1509 O   0  0  0  0  0
   -0.1316   12.0158   57.5726 O   0  0  0  0  0
  1  2  1  0  0  0
  2 65  1  0  0  0
  3 82  1  0  0  0
  4  3  1  0  0  0
  4  5  1  0  0  0
  4 66  1  0  0  0
  5  6  1  0  0  0
  6  7  1  0  0  0
  7 66  1  0  0  0
  9  8  1  0  0  0
  9 10  1  0  0  0
  9 70  1  0  0  0
 10 11  1  0  0  0
 11 12  1  0  0  0
 12 67  1  0  0  0
 13 68  1  0  0  0
 14 84  1  0  0  0
 15 14  1  0  0  0
 15 16  1  0  0  0
 15 71  1  0  0  0
 16 17  1  0  0  0
 17 18  1  0  0  0
 17 19  1  0  0  0
 20 85  1  0  0  0
 21 20  1  0  0  0
 21 22  1  0  0  0
 21 73  1  0  0  0
 22 23  1  0  0  0
 24 72  1  0  0  0
 26 27  1  0  0  0
 28 29  1  0  0  0
 30 23  1  0  0  0
 30 25  1  0  0  0
 31 86  1  0  0  0
 32 31  1  0  0  0
 32 33  1  0  0  0
 32 74  1  0  0  0
 33 34  1  0  0  0
 35 36  1  0  0  0
 37 87  1  0  0  0
 37 38  1  0  0  0
 39 34  1  0  0  0
 40 88  1  0  0  0
 41 40  1  0  0  0
 41 42  1  0  0  0
 41 75  1  0  0  0
 42 89  1  0  0  0
 43 90  1  0  0  0
 44 43  1  0  0  0
 44 45  1  0  0  0
 44 77  1  0  0  0
 45 46  1  0  0  0
 47 76  1  0  0  0
 49 50  1  0  0  0
 51 52  1  0  0  0
 53 46  1  0  0  0
 53 48  1  0  0  0
 54 91  1  0  0  0
 55 54  1  0  0  0
 55 56  1  0  0  0
 55 80  1  0  0  0
 56 57  1  0  0  0
 57 79  1  0  0  0
 58 78  1  0  0  0
 60 92  1  0  0  0
 61 60  1  0  0  0
 61 62  1  0  0  0
 61 81  1  0  0  0
 62 63  1  0  0  0
 63 64  1  0  0  0
 64 93  1  0  0  0
 66  8  1  0  0  0
 67 13  1  0  0  0
 72 25  1  0  0  0
 76 48  1  0  0  0
 78 59  1  0  0  0
  3 65  2  0  0  0
  8 83  2  0  0  0
 13 69  2  0  0  0
 14 70  2  0  0  0
 20 71  2  0  0  0
 23 24  2  0  0  0
 25 26  2  0  0  0
 27 28  2  0  0  0
 29 30  2  0  0  0
 31 73  2  0  0  0
 34 35  2  0  0  0
 36 37  2  0  0  0
 38 39  2  0  0  0
 40 74  2  0  0  0
 43 75  2  0  0  0
 46 47  2  0  0  0
 48 49  2  0  0  0
 50 51  2  0  0  0
 52 53  2  0  0  0
 54 77  2  0  0  0
 57 58  2  0  0  0
 59 79  2  0  0  0
 60 80  2  0  0  0
 64 81  2  0  0  0
M  END
> <rmsd>
0.62461257

$$$$
MolPort-000-768-002 195806699 LN01795483 MCULE-1656691076 MCULE-2669734308 PubChem-44662293 PubChem-4921776 ZINC000195806699


 62 69  0  0  0  0  0  0  0  0999 V2000
    4.2687    2.4836   54.2547 C   0  0  0  0  0
    5.7766    4.4065   53.8424 C   0  0  0  0  0
    4.9959    4.8550   52.7670 C   0  0  0  0  0
    5.3713    5.9755   52.0116 C   0  0  0  0  0
    6.5550    6.6506   52.3490 C   0  0  0  0  0
    7.3416    6.2143   53.4179 C   0  0  0  0  0
    6.9523    5.1042   54.1781 C   0  0  0  0  0
    7.4825    4.3208   56.5086 C   0  0  0  0  0
    6.1985    4.5844   57.1753 C   0  0  0  0  0
    5.4955    5.7696   56.9189 C   0  0  0  0  0
    4.3030    6.0396   57.5924 C   0  0  0  0  0
    3.7916    5.1232   58.5215 C   0  0  0  0  0
    4.4899    3.9335   58.7706 C   0  0  0  0  0
    5.6941    3.6725   58.1099 C   0  0  0  0  0
   10.7949    3.1735   56.3879 C   0  0  0  0  0
   11.1171    2.5396   57.5936 C   0  0  0  0  0
   12.3386    1.8817   57.7431 C   0  0  0  0  0
   13.2592    1.8476   56.6893 C   0  0  0  0  0
   12.9412    2.4885   55.4838 C   0  0  0  0  0
   11.7185    3.1494   55.3351 C   0  0  0  0  0
    4.5383    6.4233   50.8681 C   0  0  0  0  0
    4.9112    7.5340   50.0960 C   0  0  0  0  0
    4.1322    7.9540   49.0026 C   0  0  0  0  0
    5.7051    9.7917   48.4630 C   0  0  0  0  0
    2.9570    7.2467   48.6787 C   0  0  0  0  0
    2.5771    6.1480   49.4597 C   0  0  0  0  0
    3.3615    5.7370   50.5374 C   0  0  0  0  0
    1.4475    6.9272   46.6746 C   0  0  0  0  0
    1.5390    5.4694   46.4674 C   0  0  0  0  0
    0.4628    4.7906   45.8821 C   0  0  0  0  0
    0.5408    3.4171   45.6350 C   0  0  0  0  0
    1.7034    2.7016   45.9621 C   0  0  0  0  0
    2.7876    3.3833   46.5303 C   0  0  0  0  0
    2.7078    4.7579   46.7759 C   0  0  0  0  0
    0.3428   10.1384   45.8138 C   0  0  0  0  0
   -0.1552   10.1431   44.5043 C   0  0  0  0  0
   -0.7233   11.3022   43.9702 C   0  0  0  0  0
   -0.8166   12.4662   44.7441 C   0  0  0  0  0
   -0.3245   12.4604   46.0572 C   0  0  0  0  0
    0.2615   11.3055   46.5863 C   0  0  0  0  0
    5.4152    3.2630   54.5649 O   0  0  0  0  0
    2.1595    6.7249   59.3569 O   0  0  0  0  0
    1.9550    4.5154   59.8220 O   0  0  0  0  0
   14.8820    0.6989   58.0950 O   0  0  0  0  0
   15.2717    0.9915   55.8802 O   0  0  0  0  0
    4.5145    9.0529   48.2221 O   0  0  0  0  0
    2.9107    0.5893   46.0768 O   0  0  0  0  0
    0.8394    0.6904   45.1676 O   0  0  0  0  0
   -1.8958   14.6305   45.0294 O   0  0  0  0  0
   -1.3621   13.8607   42.9598 O   0  0  0  0  0
    7.8027    4.6445   55.2359 N   0  0  0  0  0
    9.0609    4.2770   55.0643 N   0  0  0  0  0
    9.4963    3.7547   56.2025 N   0  0  0  0  0
    8.5428    3.7562   57.1234 N   0  0  0  0  0
    2.5769    5.4170   59.2222 N   0  0  0  0  0
   14.5076    1.1647   56.8529 N   0  0  0  0  0
    2.1262    7.6680   47.5833 N   0  0  0  0  0
    1.7816    8.9262   47.3649 N   0  0  0  0  0
    0.9311    8.9502   46.3530 N   0  0  0  0  0
    0.6955    7.7300   45.8977 N   0  0  0  0  0
    1.7914    1.2946   45.7022 N   0  0  0  0  0
   -1.3909   13.6571   44.1947 N   0  0  0  0  0
  1 41  1  0  0  0
  2 41  1  0  0  0
  3  4  1  0  0  0
  4 21  1  0  0  0
  5  6  1  0  0  0
  7 51  1  0  0  0
  7  2  1  0  0  0
  8  9  1  0  0  0
  8 51  1  0  0  0
 10 11  1  0  0  0
 12 13  1  0  0  0
 12 55  1  0  0  0
 14  9  1  0  0  0
 16 17  1  0  0  0
 18 19  1  0  0  0
 18 56  1  0  0  0
 20 15  1  0  0  0
 22 23  1  0  0  0
 23 46  1  0  0  0
 24 46  1  0  0  0
 25 26  1  0  0  0
 25 57  1  0  0  0
 27 21  1  0  0  0
 28 29  1  0  0  0
 28 57  1  0  0  0
 30 31  1  0  0  0
 32 33  1  0  0  0
 32 61  1  0  0  0
 34 29  1  0  0  0
 36 37  1  0  0  0
 38 39  1  0  0  0
 38 62  1  0  0  0
 40 35  1  0  0  0
 53 52  1  0  0  0
 53 54  1  0  0  0
 53 15  1  0  0  0
 55 42  1  0  0  0
 56 44  1  0  0  0
 59 58  1  0  0  0
 59 60  1  0  0  0
 59 35  1  0  0  0
 61 47  1  0  0  0
 62 49  1  0  0  0
  2  3  2  0  0  0
  4  5  2  0  0  0
  6  7  2  0  0  0
  8 54  2  0  0  0
  9 10  2  0  0  0
 11 12  2  0  0  0
 13 14  2  0  0  0
 15 16  2  0  0  0
 17 18  2  0  0  0
 19 20  2  0  0  0
 21 22  2  0  0  0
 23 25  2  0  0  0
 26 27  2  0  0  0
 28 60  2  0  0  0
 29 30  2  0  0  0
 31 32  2  0  0  0
 33 34  2  0  0  0
 35 36  2  0  0  0
 37 38  2  0  0  0
 39 40  2  0  0  0
 51 52  2  0  0  0
 55 43  2  0  0  0
 56 45  2  0  0  0
 57 58  2  0  0  0
 61 48  2  0  0  0
 62 50  2  0  0  0
M  CHG  8  51   1  55   1  42  -1  56   1  44  -1  57   1  61   1  47  -1
M  CHG  2  62   1  49  -1
M  END
> <rmsd>
0.616923749

$$$$
MolPort-006-536-875 ChemDiv-V014-8359 MCULE-3858609961 PubChem-46002670 ZINC000103190922


 44 49  0  0  0  0  0  0  0  0999 V2000
   -0.8727   13.2704   41.7201 C   0  0  0  0  0
   -0.3379   12.9674   44.1165 C   0  0  0  0  0
    0.7839   12.1792   43.8372 C   0  0  0  0  0
    1.5565   11.6654   44.8784 C   0  0  0  0  0
    1.2337   11.9229   46.2218 C   0  0  0  0  0
    0.0980   12.7257   46.5065 C   0  0  0  0  0
   -1.3829   13.8173   48.1706 C   0  0  0  0  0
   -0.6711   13.2346   45.4455 C   0  0  0  0  0
    2.1074   11.3302   47.2735 C   0  0  0  0  0
    1.8970   11.5634   48.6362 C   0  0  0  0  0
    2.7422   10.9834   49.5766 C   0  0  0  0  0
    3.7951   10.1727   49.1445 C   0  0  0  0  0
    4.5753    9.8056   51.5226 C   0  0  0  0  0
    4.4861    8.4786   52.2690 C   0  0  0  0  0
    5.6658    7.3335   50.3763 C   0  0  0  0  0
    5.7500    8.6611   49.6289 C   0  0  0  0  0
    6.4510    6.9629   52.7362 C   0  0  0  0  0
    6.2797    7.1301   54.2137 C   0  0  0  0  0
    3.9764    6.3997   54.8316 C   0  0  0  0  0
    3.5508    6.4857   56.2576 C   0  0  0  0  0
    3.8226    7.6550   57.0037 C   0  0  0  0  0
    3.4310    7.7495   58.3510 C   0  0  0  0  0
    2.7756    6.6539   58.9074 C   0  0  0  0  0
    1.6984    5.2021   60.2949 C   0  0  0  0  0
    2.5170    5.5283   58.1933 C   0  0  0  0  0
    2.8908    5.3971   56.8582 C   0  0  0  0  0
    5.8593    4.7415   54.9299 C   0  0  0  0  0
    7.2607    4.4353   55.2923 C   0  0  0  0  0
    7.7718    3.1465   55.0770 C   0  0  0  0  0
    9.0873    2.8366   55.4332 C   0  0  0  0  0
    9.9015    3.8117   56.0152 C   0  0  0  0  0
    9.3992    5.0956   56.2431 C   0  0  0  0  0
    8.0838    5.4045   55.8855 C   0  0  0  0  0
   -1.1391   13.4908   43.0986 O   0  0  0  0  0
   -0.2626   13.0109   47.8290 O   0  0  0  0  0
    7.3843    6.2292   52.3129 O   0  0  0  0  0
    2.2939    6.5036   60.1926 O   0  0  0  0  0
    1.8630    4.6148   58.9953 O   0  0  0  0  0
    5.0448    3.7883   54.7839 O   0  0  0  0  0
    3.9642    9.9749   47.8088 N   0  0  0  0  0
    3.1522   10.5342   46.9092 N   0  0  0  0  0
    4.6810    9.5466   50.0870 N   0  0  0  0  0
    5.5494    7.5875   51.8103 N   0  0  0  0  0
    5.3995    6.0946   54.7444 N   0  0  0  0  0
  1 34  1  0  0  0
  2 34  1  0  0  0
  3  4  1  0  0  0
  5  6  1  0  0  0
  5  9  1  0  0  0
  6 35  1  0  0  0
  7 35  1  0  0  0
  8  2  1  0  0  0
  9 41  1  0  0  0
 10 11  1  0  0  0
 12 40  1  0  0  0
 12 42  1  0  0  0
 13 42  1  0  0  0
 13 14  1  0  0  0
 14 43  1  0  0  0
 15 43  1  0  0  0
 15 16  1  0  0  0
 16 42  1  0  0  0
 18 17  1  0  0  0
 18 44  1  0  0  0
 19 44  1  0  0  0
 19 20  1  0  0  0
 21 22  1  0  0  0
 23 37  1  0  0  0
 24 37  1  0  0  0
 24 38  1  0  0  0
 25 38  1  0  0  0
 25 23  1  0  0  0
 26 20  1  0  0  0
 27 28  1  0  0  0
 29 30  1  0  0  0
 31 32  1  0  0  0
 33 28  1  0  0  0
 43 17  1  0  0  0
 44 27  1  0  0  0
  2  3  2  0  0  0
  4  5  2  0  0  0
  6  8  2  0  0  0
  9 10  2  0  0  0
 11 12  2  0  0  0
 17 36  2  0  0  0
 20 21  2  0  0  0
 22 23  2  0  0  0
 25 26  2  0  0  0
 27 39  2  0  0  0
 28 29  2  0  0  0
 30 31  2  0  0  0
 32 33  2  0  0  0
 40 41  2  0  0  0
M  END
> <rmsd>
0.737292886

$$$$
MolPort-046-426-314 MCULE-9401184227 PubChem-11966208


 56 59  0  0  0  0  0  0  0  0999 V2000
   -1.3042    9.6606   50.4244 C   0  0  0  0  0
   -0.4625    8.4430   50.0749 C   0  0  0  0  0
   -1.4089    7.2728   49.8515 C   0  0  0  0  0
    0.4412    8.1297   51.2657 C   0  0  0  0  0
    2.7681    4.8828   55.6524 C   0  0  0  0  0
    2.9656    4.1418   56.9671 C   0  0  0  0  0
    5.0368    4.0623   57.9123 C   0  0  0  0  0
    4.3933    5.3368   58.4017 C   0  0  0  0  0
    2.9347    5.1136   58.1268 C   0  0  0  0  0
    7.4385    4.7987   58.0697 C   0  0  0  0  0
    8.1702    4.4099   56.1159 C   0  0  0  0  0
    8.9025    4.2261   54.9467 C   0  0  0  0  0
    6.9204    3.3941   53.9074 C   0  0  0  0  0
    6.8591    4.0886   56.1444 C   0  0  0  0  0
    0.3645    8.6829   48.7926 C   0  0  0  0  0
    1.4490    9.7080   48.9447 C   0  0  0  0  0
    2.1349   12.1060   49.3107 C   0  0  0  0  0
    1.5165   13.4112   49.7911 C   0  0  0  0  0
    0.6077   14.0520   48.7837 C   0  0  0  0  0
   -0.4911   14.0400   46.4955 C   0  0  0  0  0
    0.2654   15.1774   45.8285 C   0  0  0  0  0
   -0.3080   14.4942   43.3338 C   0  0  0  0  0
    0.8847   14.5526   42.4335 C   0  0  0  0  0
    2.1862   14.5337   43.2490 C   0  0  0  0  0
    3.3461   15.1258   42.4510 C   0  0  0  0  0
    3.0851   16.5977   42.0983 C   0  0  0  0  0
    1.5909   16.9389   41.9339 C   0  0  0  0  0
    0.7868   15.7274   41.4452 C   0  0  0  0  0
    1.2120    6.9796   51.0329 O   0  0  0  0  0
   -0.2533    5.8100   53.0537 O   0  0  0  0  0
    2.1153    4.9427   52.3821 O   0  0  0  0  0
    2.1203    7.2445   53.6355 O   0  0  0  0  0
    2.4871    7.7358   56.3242 O   0  0  0  0  0
    0.1098    7.5392   55.2985 O   0  0  0  0  0
    1.4385    5.2918   55.5305 O   0  0  0  0  0
    4.2011    3.4637   56.9464 O   0  0  0  0  0
    4.6453    5.5237   59.7628 O   0  0  0  0  0
    2.3028    4.4982   59.2146 O   0  0  0  0  0
   -0.0093    5.7421   58.3087 O   0  0  0  0  0
    1.6186    7.0182   60.1452 O   0  0  0  0  0
    0.2356    4.8905   60.7676 O   0  0  0  0  0
   -0.4593    9.0223   47.7160 O   0  0  0  0  0
    2.6518    9.3603   48.7957 O   0  0  0  0  0
    0.0828   15.1626   49.0632 O   0  0  0  0  0
   -1.0352   13.5169   43.2982 O   0  0  0  0  0
    1.3130    6.2096   52.5424 P   0  0  0  0  0
    1.5013    6.9552   55.1919 P   0  0  0  0  0
    1.0170    5.5205   59.6370 P   0  0  0  0  0
    6.3702    4.3282   57.3699 N   0  0  0  0  0
    8.5720    4.8668   57.3171 N   0  0  0  0  0
   10.2913    4.5341   54.8867 N   0  0  0  0  0
    8.2543    3.7124   53.8543 N   0  0  0  0  0
    6.2090    3.5796   55.0643 N   0  0  0  0  0
    1.1213   11.0651   49.2430 N   0  0  0  0  0
    0.3396   13.4274   47.5240 N   0  0  0  0  0
   -0.7096   15.8520   44.4449 S   0  0  0  0  0
  1  2  1  0  0  0
  2  3  1  0  0  0
  2  4  1  0  0  0
  4 29  1  0  0  0
  5 35  1  0  0  0
  6  5  1  0  0  0
  6 36  1  0  0  0
  7 36  1  0  0  0
  7  8  1  0  0  0
  7 49  1  0  0  0
  8 37  1  0  0  0
  8  9  1  0  0  0
  9 38  1  0  0  0
  9  6  1  0  0  0
 11 50  1  0  0  0
 12 51  1  0  0  0
 12 52  1  0  0  0
 13 53  1  0  0  0
 14 49  1  0  0  0
 14 11  1  0  0  0
 15  2  1  0  0  0
 15 42  1  0  0  0
 15 16  1  0  0  0
 16 54  1  0  0  0
 17 54  1  0  0  0
 17 18  1  0  0  0
 18 19  1  0  0  0
 19 55  1  0  0  0
 20 55  1  0  0  0
 20 21  1  0  0  0
 21 56  1  0  0  0
 22 56  1  0  0  0
 23 22  1  0  0  0
 23 24  1  0  0  0
 24 25  1  0  0  0
 25 26  1  0  0  0
 26 27  1  0  0  0
 27 28  1  0  0  0
 28 23  1  0  0  0
 46 29  1  0  0  0
 46 30  1  0  0  0
 46 32  1  0  0  0
 47 32  1  0  0  0
 47 33  1  0  0  0
 47 35  1  0  0  0
 48 38  1  0  0  0
 48 39  1  0  0  0
 48 40  1  0  0  0
 49 10  1  0  0  0
 10 50  2  0  0  0
 11 12  2  0  0  0
 13 52  2  0  0  0
 14 53  2  0  0  0
 16 43  2  0  0  0
 19 44  2  0  0  0
 22 45  2  0  0  0
 46 31  2  0  0  0
 47 34  2  0  0  0
 48 41  2  0  0  0
M  END
> <rmsd>
0.688706577

$$$$
MolPort-046-426-314 MCULE-9401184227 PubChem-11966208


 56 59  0  0  0  0  0  0  0  0999 V2000
   -1.3458    9.9008   50.3495 C   0  0  0  0  0
   -0.6413    8.6125   49.9531 C   0  0  0  0  0
   -1.6992    7.5274   49.8178 C   0  0  0  0  0
    0.3210    8.2299   51.0758 C   0  0  0  0  0
    2.6904    4.8221   55.3153 C   0  0  0  0  0
    2.9239    4.0754   56.6208 C   0  0  0  0  0
    5.0471    3.8228   57.4068 C   0  0  0  0  0
    4.5552    5.1515   57.9268 C   0  0  0  0  0
    3.0660    5.0539   57.7666 C   0  0  0  0  0
    7.5082    4.3490   57.3714 C   0  0  0  0  0
    8.0514    3.8854   55.3729 C   0  0  0  0  0
    8.6731    3.6310   54.1540 C   0  0  0  0  0
    6.5527    2.9674   53.2794 C   0  0  0  0  0
    6.7236    3.6792   55.5053 C   0  0  0  0  0
    0.1022    8.7713   48.6086 C   0  0  0  0  0
    1.2793    9.6995   48.6643 C   0  0  0  0  0
    2.1950   12.0312   48.9454 C   0  0  0  0  0
    1.7300   13.3883   49.4542 C   0  0  0  0  0
    0.8049   14.0989   48.5104 C   0  0  0  0  0
   -0.4635   14.1673   46.3127 C   0  0  0  0  0
    0.3344   15.2303   45.5752 C   0  0  0  0  0
   -0.4857   14.5831   43.1405 C   0  0  0  0  0
    0.6348   14.5320   42.1514 C   0  0  0  0  0
    1.9887   14.4055   42.8659 C   0  0  0  0  0
    3.1304   14.8895   41.9743 C   0  0  0  0  0
    2.9706   16.3762   41.6230 C   0  0  0  0  0
    1.5031   16.8446   41.5682 C   0  0  0  0  0
    0.5626   15.7042   41.1581 C   0  0  0  0  0
    0.9698    7.0157   50.8002 O   0  0  0  0  0
   -0.4309    5.9910   52.9418 O   0  0  0  0  0
    1.7956    4.9170   52.1036 O   0  0  0  0  0
    2.0950    7.2179   53.3226 O   0  0  0  0  0
    2.7082    7.6931   55.9689 O   0  0  0  0  0
    0.2511    7.6968   55.1296 O   0  0  0  0  0
    1.3955    5.3441   55.2895 O   0  0  0  0  0
    4.0913    3.2926   56.5152 O   0  0  0  0  0
    4.9262    5.3247   59.2622 O   0  0  0  0  0
    2.4690    4.5028   58.9073 O   0  0  0  0  0
    0.2096    5.9366   58.1635 O   0  0  0  0  0
    2.0777    7.0787   59.8540 O   0  0  0  0  0
    0.5687    5.0832   60.6077 O   0  0  0  0  0
   -0.7697    9.1738   47.5934 O   0  0  0  0  0
    2.4327    9.2477   48.4288 O   0  0  0  0  0
    0.4005   15.2527   48.8143 O   0  0  0  0  0
   -1.2949   13.6724   43.1733 O   0  0  0  0  0
    1.1200    6.2498   52.3077 P   0  0  0  0  0
    1.5749    6.9936   54.9252 P   0  0  0  0  0
    1.3122    5.6355   59.4128 P   0  0  0  0  0
    6.3528    3.9684   56.7611 N   0  0  0  0  0
    8.5822    4.3135   56.5340 N   0  0  0  0  0
   10.0745    3.8170   53.9845 N   0  0  0  0  0
    7.9010    3.1684   53.1208 N   0  0  0  0  0
    5.9510    3.2215   54.4845 N   0  0  0  0  0
    1.0934   11.0819   48.9687 N   0  0  0  0  0
    0.3880   13.4917   47.2831 N   0  0  0  0  0
   -0.6825   15.9780   44.2609 S   0  0  0  0  0
  1  2  1  0  0  0
  2  3  1  0  0  0
  2  4  1  0  0  0
  4 29  1  0  0  0
  5 35  1  0  0  0
  6  5  1  0  0  0
  6 36  1  0  0  0
  7 36  1  0  0  0
  7  8  1  0  0  0
  7 49  1  0  0  0
  8 37  1  0  0  0
  8  9  1  0  0  0
  9 38  1  0  0  0
  9  6  1  0  0  0
 11 50  1  0  0  0
 12 51  1  0  0  0
 12 52  1  0  0  0
 13 53  1  0  0  0
 14 49  1  0  0  0
 14 11  1  0  0  0
 15  2  1  0  0  0
 15 42  1  0  0  0
 15 16  1  0  0  0
 16 54  1  0  0  0
 17 54  1  0  0  0
 17 18  1  0  0  0
 18 19  1  0  0  0
 19 55  1  0  0  0
 20 55  1  0  0  0
 20 21  1  0  0  0
 21 56  1  0  0  0
 22 56  1  0  0  0
 23 22  1  0  0  0
 23 24  1  0  0  0
 24 25  1  0  0  0
 25 26  1  0  0  0
 26 27  1  0  0  0
 27 28  1  0  0  0
 28 23  1  0  0  0
 46 29  1  0  0  0
 46 30  1  0  0  0
 46 32  1  0  0  0
 47 32  1  0  0  0
 47 33  1  0  0  0
 47 35  1  0  0  0
 48 38  1  0  0  0
 48 39  1  0  0  0
 48 40  1  0  0  0
 49 10  1  0  0  0
 10 50  2  0  0  0
 11 12  2  0  0  0
 13 52  2  0  0  0
 14 53  2  0  0  0
 16 43  2  0  0  0
 19 44  2  0  0  0
 22 45  2  0  0  0
 46 31  2  0  0  0
 47 34  2  0  0  0
 48 41  2  0  0  0
M  END
> <rmsd>
0.572134376

$$$$
MolPort-049-227-842


 51 56  0  0  0  0  0  0  0  0999 V2000
   -3.8092   12.1809   44.0242 C   0  0  0  0  0
   -2.9375   10.2810   45.4124 C   0  0  0  0  0
   -1.5936    8.7730   46.9016 C   0  0  0  0  0
   -0.4488    8.3637   48.7841 C   0  0  0  0  0
    0.5620    9.0583   49.6789 C   0  0  0  0  0
    3.3205    8.7344   56.9004 C   0  0  0  0  0
    2.7373    7.3492   57.1266 C   0  0  0  0  0
    3.9265    5.4322   56.7955 C   0  0  0  0  0
    3.5904    5.4434   58.2700 C   0  0  0  0  0
    3.1491    6.8632   58.4967 C   0  0  0  0  0
    6.1147    6.7171   56.8357 C   0  0  0  0  0
    7.4625    5.2723   56.0550 C   0  0  0  0  0
    8.5421    4.5261   55.5972 C   0  0  0  0  0
    7.0438    2.6956   55.2648 C   0  0  0  0  0
    6.2302    4.7193   56.0993 C   0  0  0  0  0
    0.2646    7.5376   47.7367 C   0  0  0  0  0
   -0.5217    7.7941   46.4707 C   0  0  0  0  0
   -0.8388   10.7091   45.4675 C   0  0  0  0  0
   -1.4384   11.6473   44.6964 C   0  0  0  0  0
   -0.6898   12.6948   44.1702 C   0  0  0  0  0
    1.2344   11.7577   45.2312 C   0  0  0  0  0
   -2.7569   11.3836   44.6404 N   0  0  0  0  0
   -1.7580    9.8352   45.9163 N   0  0  0  0  0
    5.3619    5.6106   56.5889 N   0  0  0  0  0
    7.4283    6.5390   56.5133 N   0  0  0  0  0
    9.8583    5.0707   55.5472 N   0  0  0  0  0
    8.3067    3.2353   55.2104 N   0  0  0  0  0
    5.9854    3.4410   55.7144 N   0  0  0  0  0
    0.6476   12.7222   44.4484 N   0  0  0  0  0
    2.6279   11.8248   45.5121 N   0  0  0  0  0
    0.4848   10.7418   45.7587 N   0  0  0  0  0
   -1.2375    9.3288   48.1407 O   0  0  0  0  0
    1.0306    8.1775   50.6559 O   0  0  0  0  0
   -0.6346   10.0563   51.9467 O   0  0  0  0  0
   -0.4607    7.5738   52.7045 O   0  0  0  0  0
    1.5935    9.0755   53.2571 O   0  0  0  0  0
    2.0192   11.2237   51.5212 O   0  0  0  0  0
    3.6117    9.1596   51.5689 O   0  0  0  0  0
    3.7570   10.8231   53.5945 O   0  0  0  0  0
    4.8514    8.2997   54.0758 O   0  0  0  0  0
    5.2545   10.3305   55.6639 O   0  0  0  0  0
    2.8327    9.2824   55.7116 O   0  0  0  0  0
    3.2121    6.4568   56.1391 O   0  0  0  0  0
    2.5422    4.5465   58.5000 O   0  0  0  0  0
    2.0745    6.9487   59.3898 O   0  0  0  0  0
    0.2479    6.1918   48.1072 O   0  0  0  0  0
   -1.1220    6.6354   45.9737 O   0  0  0  0  0
   -1.2177   13.6007   43.4683 O   0  0  0  0  0
    0.3687    8.7021   52.1367 P   0  0  0  0  0
    2.7603   10.0315   52.4646 P   0  0  0  0  0
    4.2000    9.6930   54.7857 P   0  0  0  0  0
  1 22  1  0  0  0
  2 23  1  0  0  0
  3 23  1  0  0  0
  3 32  1  0  0  0
  4 32  1  0  0  0
  4  5  1  0  0  0
  4 16  1  0  0  0
  5 33  1  0  0  0
  6 42  1  0  0  0
  7  6  1  0  0  0
  7 43  1  0  0  0
  8 43  1  0  0  0
  8  9  1  0  0  0
  8 24  1  0  0  0
  9 44  1  0  0  0
  9 10  1  0  0  0
 10 45  1  0  0  0
 10  7  1  0  0  0
 12 25  1  0  0  0
 13 26  1  0  0  0
 13 27  1  0  0  0
 14 28  1  0  0  0
 15 24  1  0  0  0
 15 12  1  0  0  0
 16 46  1  0  0  0
 16 17  1  0  0  0
 17 47  1  0  0  0
 17  3  1  0  0  0
 19 20  1  0  0  0
 19 22  1  0  0  0
 20 29  1  0  0  0
 21 30  1  0  0  0
 21 31  1  0  0  0
 23 18  1  0  0  0
 24 11  1  0  0  0
 31 18  1  0  0  0
 49 33  1  0  0  0
 49 34  1  0  0  0
 49 36  1  0  0  0
 50 36  1  0  0  0
 50 37  1  0  0  0
 50 39  1  0  0  0
 51 39  1  0  0  0
 51 40  1  0  0  0
 51 42  1  0  0  0
 11 25  2  0  0  0
 12 13  2  0  0  0
 14 27  2  0  0  0
 15 28  2  0  0  0
 18 19  2  0  0  0
 20 48  2  0  0  0
 21 29  2  0  0  0
 22  2  2  0  0  0
 49 35  2  0  0  0
 50 38  2  0  0  0
 51 41  2  0  0  0
M  CHG  4  22   1  34  -1  37  -1  40  -1
M  END
> <rmsd>
0.776069105

$$$$
MolPort-047-806-614


 94 98  0  0  0  0  0  0  0  0999 V2000
    6.1616   15.8338   45.4656 C   0  0  0  0  0
    6.4575   14.8174   44.3777 C   0  0  0  0  0
    7.8907   14.9805   43.9171 C   0  0  0  0  0
    6.2542   13.4027   44.8989 C   0  0  0  0  0
    4.7715   13.0798   45.0809 C   0  0  0  0  0
    4.8450   12.1426   47.3260 C   0  0  0  0  0
    4.6160   10.9834   48.2300 C   0  0  0  0  0
    2.4842   10.0411   48.8572 C   0  0  0  0  0
    1.1041   10.1890   49.4233 C   0  0  0  0  0
    0.0149   10.1534   48.3455 C   0  0  0  0  0
    0.0499   11.3341   47.4172 C   0  0  0  0  0
    1.0423   11.4505   46.4322 C   0  0  0  0  0
    1.0444   12.5448   45.5613 C   0  0  0  0  0
    0.0520   13.5211   45.6642 C   0  0  0  0  0
   -0.9486   13.4010   46.6332 C   0  0  0  0  0
   -0.9515   12.3059   47.5050 C   0  0  0  0  0
    0.9852   11.3710   51.5499 C   0  0  0  0  0
    1.0943   10.0775   52.3270 C   0  0  0  0  0
    0.6277   10.1995   53.7762 C   0  0  0  0  0
    3.5239   10.1011   52.6860 C   0  0  0  0  0
    4.8388    9.4015   52.5867 C   0  0  0  0  0
    5.2107    9.1441   51.1300 C   0  0  0  0  0
    6.6354    8.7105   51.0192 C   0  0  0  0  0
    5.1960    8.0403   54.5559 C   0  0  0  0  0
    5.1508    6.7207   55.2552 C   0  0  0  0  0
    6.0069    5.6973   54.5184 C   0  0  0  0  0
    7.1996    5.3190   55.3377 C   0  0  0  0  0
    7.4622    4.0589   55.8642 C   0  0  0  0  0
    9.0994    5.3280   56.4442 C   0  0  0  0  0
   10.2885    5.8231   56.9733 C   0  0  0  0  0
   10.6045    7.1726   56.7245 C   0  0  0  0  0
    9.7363    7.9854   55.9635 C   0  0  0  0  0
    8.5379    7.4583   55.4477 C   0  0  0  0  0
    8.2552    6.1174   55.7111 C   0  0  0  0  0
    3.3772    5.3273   56.1736 C   0  0  0  0  0
    4.3406    4.6501   57.1108 C   0  0  0  0  0
    4.4152    5.3481   58.4669 C   0  0  0  0  0
    3.1261    5.3146   59.2249 C   0  0  0  0  0
    4.2251    2.3636   56.2976 C   0  0  0  0  0
    3.9848    0.9161   56.5679 C   0  0  0  0  0
    5.2872    0.2464   56.9757 C   0  0  0  0  0
    5.6211    0.5589   58.3970 C   0  0  0  0  0
    4.8331    0.0536   59.4400 C   0  0  0  0  0
    5.1634    0.3437   60.7706 C   0  0  0  0  0
    6.2798    1.1377   61.0589 C   0  0  0  0  0
    7.0654    1.6418   60.0179 C   0  0  0  0  0
    6.7394    1.3476   58.6883 C   0  0  0  0  0
    4.1440   12.7030   43.7644 C   0  0  0  0  0
    2.9364   11.1493   42.3691 C   0  0  0  0  0
    3.8932   10.2090   41.6417 C   0  0  0  0  0
    3.6851   10.2572   40.1347 C   0  0  0  0  0
    4.1442   11.5928   39.5703 C   0  0  0  0  0
    6.2604   12.9622   39.4121 C   0  0  0  0  0
    1.6093   10.4954   42.6180 C   0  0  0  0  0
    0.3972   12.4023   41.6804 C   0  0  0  0  0
    0.8419   12.3461   40.2193 C   0  0  0  0  0
    1.1495   13.7104   39.6973 C   0  0  0  0  0
    0.3483   14.2598   38.6884 C   0  0  0  0  0
    0.6376   15.5300   38.1790 C   0  0  0  0  0
    1.7318   16.2520   38.6712 C   0  0  0  0  0
    2.5315   15.7054   39.6820 C   0  0  0  0  0
    2.2435   14.4351   40.1914 C   0  0  0  0  0
   -0.9997   12.9184   41.7937 C   0  0  0  0  0
    4.6132   12.0074   46.0573 N   0  0  0  0  0
    3.2738   11.0674   48.7853 N   0  0  0  0  0
    0.9841   11.3854   50.2517 N   0  0  0  0  0
    2.4405    9.5137   52.2637 N   0  0  0  0  0
    6.9135    7.5285   50.5827 N   0  0  0  0  0
    4.8013    8.1423   53.3244 N   0  0  0  0  0
    8.6320    4.0684   56.5553 N   0  0  0  0  0
    3.7715    6.2551   55.3567 N   0  0  0  0  0
    2.7095    4.2123   59.7609 N   0  0  0  0  0
    4.0720    3.2218   57.2579 N   0  0  0  0  0
    3.4542    0.2651   55.3849 N   0  0  0  0  0
    3.5276   11.5685   43.6290 N   0  0  0  0  0
    5.5738   11.7630   39.7756 N   0  0  0  0  0
    7.6577   13.0739   39.6479 N   0  0  0  0  0
    5.6259   13.9470   38.8634 N   0  0  0  0  0
    0.4911   11.0814   42.2972 N   0  0  0  0  0
   -1.9733   12.3217   41.1905 N   0  0  0  0  0
    5.2634   13.3567   47.8529 O   0  0  0  0  0
    2.8928    8.7935   48.3803 O   0  0  0  0  0
    0.8977   12.5809   52.2294 O   0  0  0  0  0
   -0.7504   10.4017   53.8128 O   0  0  0  0  0
    3.4783   11.3732   53.2550 O   0  0  0  0  0
    7.6609    9.5807   51.3738 O   0  0  0  0  0
    5.6701    9.1549   55.2414 O   0  0  0  0  0
    2.0363    4.9692   56.1875 O   0  0  0  0  0
    2.4012    6.4848   59.4125 O   0  0  0  0  0
    4.6492    2.7741   55.0377 O   0  0  0  0  0
    6.6165    1.4160   62.3785 O   0  0  0  0  0
    4.2289   13.5881   42.6917 O   0  0  0  0  0
    1.5675    9.2523   43.2418 O   0  0  0  0  0
   -1.2421   14.0677   42.5344 O   0  0  0  0  0
  1  2  1  0  0  0
  2  3  1  0  0  0
  2  4  1  0  0  0
  5  4  1  0  0  0
  5 64  1  0  0  0
  5 48  1  0  0  0
  6 81  1  0  0  0
  7  6  1  0  0  0
  7 65  1  0  0  0
  8 82  1  0  0  0
  9  8  1  0  0  0
  9 10  1  0  0  0
  9 66  1  0  0  0
 10 11  1  0  0  0
 12 13  1  0  0  0
 14 15  1  0  0  0
 16 11  1  0  0  0
 17 83  1  0  0  0
 18 17  1  0  0  0
 18 19  1  0  0  0
 18 67  1  0  0  0
 19 84  1  0  0  0
 20 85  1  0  0  0
 21 20  1  0  0  0
 21 22  1  0  0  0
 21 69  1  0  0  0
 22 23  1  0  0  0
 23 86  1  0  0  0
 24 87  1  0  0  0
 25 24  1  0  0  0
 25 26  1  0  0  0
 25 71  1  0  0  0
 26 27  1  0  0  0
 28 70  1  0  0  0
 30 31  1  0  0  0
 32 33  1  0  0  0
 34 27  1  0  0  0
 34 29  1  0  0  0
 35 88  1  0  0  0
 36 35  1  0  0  0
 36 37  1  0  0  0
 36 73  1  0  0  0
 37 38  1  0  0  0
 38 89  1  0  0  0
 39 90  1  0  0  0
 40 39  1  0  0  0
 40 74  1  0  0  0
 40 41  1  0  0  0
 41 42  1  0  0  0
 43 44  1  0  0  0
 45 91  1  0  0  0
 45 46  1  0  0  0
 47 42  1  0  0  0
 48 92  1  0  0  0
 49 75  1  0  0  0
 49 50  1  0  0  0
 49 54  1  0  0  0
 50 51  1  0  0  0
 51 52  1  0  0  0
 52 76  1  0  0  0
 53 77  1  0  0  0
 54 93  1  0  0  0
 55 79  1  0  0  0
 55 56  1  0  0  0
 55 63  1  0  0  0
 56 57  1  0  0  0
 58 59  1  0  0  0
 60 61  1  0  0  0
 62 57  1  0  0  0
 63 94  1  0  0  0
 70 29  1  0  0  0
 76 53  1  0  0  0
  6 64  2  0  0  0
  8 65  2  0  0  0
 11 12  2  0  0  0
 13 14  2  0  0  0
 15 16  2  0  0  0
 17 66  2  0  0  0
 20 67  2  0  0  0
 23 68  2  0  0  0
 24 69  2  0  0  0
 27 28  2  0  0  0
 29 30  2  0  0  0
 31 32  2  0  0  0
 33 34  2  0  0  0
 35 71  2  0  0  0
 38 72  2  0  0  0
 39 73  2  0  0  0
 42 43  2  0  0  0
 44 45  2  0  0  0
 46 47  2  0  0  0
 48 75  2  0  0  0
 53 78  2  0  0  0
 54 79  2  0  0  0
 57 58  2  0  0  0
 59 60  2  0  0  0
 61 62  2  0  0  0
 63 80  2  0  0  0
M  END
> <rmsd>
0.766689122

$$$$
MolPort-003-983-648


 92 97  0  0  0  0  0  0  0  0999 V2000
   -3.6920    0.2687   40.6696 Na  0  0  0  0  0
   10.6847    5.8209   58.9473 Na  0  0  0  0  0
    9.6573    6.4449   51.8707 Na  0  0  0  0  0
    2.8258    6.8800   57.3898 Na  0  0  0  0  0
   -4.8100    9.3543   59.4716 Na  0  0  0  0  0
   -3.5396   12.0853   42.1165 Na  0  0  0  0  0
   -7.0241   17.3468   47.2165 Na  0  0  0  0  0
    0.6835    0.4103   44.6605 Na  0  0  0  0  0
   -1.9992   -0.2131   39.6528 O   0  0  0  0  0
   -2.4762    1.9019   38.2181 O   0  0  0  0  0
   -0.2107    1.0003   38.2055 O   0  0  0  0  0
   -1.2326    6.6417   43.1983 O   0  0  0  0  0
    0.4293    6.6107   50.5912 O   0  0  0  0  0
    4.8866    3.2850   55.7530 O   0  0  0  0  0
   12.4991    3.5638   55.7314 O   0  0  0  0  0
   11.5376    2.8377   57.8614 O   0  0  0  0  0
   12.1112    5.3575   57.5770 O   0  0  0  0  0
    9.2380    8.1206   54.3983 O   0  0  0  0  0
    6.8491    7.8256   54.8340 O   0  0  0  0  0
    7.8130    6.9321   52.5822 O   0  0  0  0  0
   -0.8219    6.2145   54.8141 O   0  0  0  0  0
    1.4183    5.0908   61.0582 O   0  0  0  0  0
    1.8983    4.2953   58.8000 O   0  0  0  0  0
    2.4753    6.7694   59.3899 O   0  0  0  0  0
   -3.0514    8.3858   61.7600 O   0  0  0  0  0
   -3.7132    6.0313   61.9802 O   0  0  0  0  0
   -5.0464    7.5212   60.3390 O   0  0  0  0  0
   -1.5233    9.9670   48.5794 O   0  0  0  0  0
   -1.3011   13.7379   43.1379 O   0  0  0  0  0
    0.0975   12.1719   44.4029 O   0  0  0  0  0
   -1.9776   11.2485   43.1264 O   0  0  0  0  0
   -4.5683   16.5321   45.6025 O   0  0  0  0  0
   -3.7901   16.6476   47.9299 O   0  0  0  0  0
   -6.0970   15.5465   47.4483 O   0  0  0  0  0
    2.7183    1.3314   42.4918 O   0  0  0  0  0
    2.9310    3.7105   43.0097 O   0  0  0  0  0
    1.6687    2.1888   44.7030 O   0  0  0  0  0
   -1.4197    1.2480   39.0620 S   0  0  0  0  0
   11.5669    3.9426   56.8435 S   0  0  0  0  0
    8.0705    7.1882   54.2235 S   0  0  0  0  0
    1.4257    5.4744   59.6031 S   0  0  0  0  0
   -3.5503    7.1744   61.0205 S   0  0  0  0  0
   -1.3165   12.5110   44.0100 S   0  0  0  0  0
   -4.5253   15.8118   46.9212 S   0  0  0  0  0
    2.0189    2.5186   43.0928 S   0  0  0  0  0
   -0.9880    2.2853   40.4067 C   0  0  0  0  0
    0.1815    2.0419   41.1327 C   0  0  0  0  0
    0.5295    2.8617   42.2113 C   0  0  0  0  0
   -0.3043    3.9345   42.5752 C   0  0  0  0  0
   -0.5722    5.9991   44.0576 C   0  0  0  0  0
   -0.3923    6.5587   45.4078 C   0  0  0  0  0
    0.3166    5.8429   46.3808 C   0  0  0  0  0
    0.4494    6.3442   47.6785 C   0  0  0  0  0
    1.2774    5.8590   50.0408 C   0  0  0  0  0
    2.3805    5.1798   52.2477 C   0  0  0  0  0
    1.2747    5.4900   53.0582 C   0  0  0  0  0
    1.3510    5.3585   54.4549 C   0  0  0  0  0
    2.5405    4.8954   55.0316 C   0  0  0  0  0
    3.6477    4.5919   54.2347 C   0  0  0  0  0
    3.5676    4.7492   52.8462 C   0  0  0  0  0
    4.9003    4.1805   54.8676 C   0  0  0  0  0
    7.4062    4.6552   55.1108 C   0  0  0  0  0
    8.4006    5.6450   55.0078 C   0  0  0  0  0
    9.6717    5.4140   55.5490 C   0  0  0  0  0
    9.9640    4.2042   56.1813 C   0  0  0  0  0
    8.9807    3.2166   56.2816 C   0  0  0  0  0
    7.7072    3.4436   55.7527 C   0  0  0  0  0
    0.2265    5.7460   55.3210 C   0  0  0  0  0
   -0.5816    6.0051   57.7573 C   0  0  0  0  0
   -1.8751    6.4357   57.4199 C   0  0  0  0  0
   -2.7872    6.7910   58.4179 C   0  0  0  0  0
   -2.4149    6.7227   59.7650 C   0  0  0  0  0
   -1.1245    6.3099   60.1063 C   0  0  0  0  0
   -0.2039    5.9481   59.1152 C   0  0  0  0  0
   -0.1146    7.5874   47.9980 C   0  0  0  0  0
   -0.8081    8.3256   47.0327 C   0  0  0  0  0
   -0.9461    7.8040   45.7405 C   0  0  0  0  0
   -1.3728    9.6407   47.3683 C   0  0  0  0  0
   -2.3723   11.8194   46.4755 C   0  0  0  0  0
   -3.1429   12.0921   47.6143 C   0  0  0  0  0
   -3.8052   13.3140   47.7402 C   0  0  0  0  0
   -3.7039   14.2770   46.7353 C   0  0  0  0  0
   -2.9417   14.0144   45.5979 C   0  0  0  0  0
   -2.2838   12.7901   45.4550 C   0  0  0  0  0
   -1.4844    4.1572   41.8505 C   0  0  0  0  0
   -1.8216    3.3419   40.7690 C   0  0  0  0  0
    0.0270    4.7443   43.7133 N   0  0  0  0  0
    1.2211    5.6056   48.6308 N   0  0  0  0  0
    2.3185    5.2464   50.8152 N   0  0  0  0  0
    6.1029    4.9039   54.5665 N   0  0  0  0  0
    0.3678    5.6405   56.7458 N   0  0  0  0  0
   -1.7059   10.5578   46.3206 N   0  0  0  0  0
  9  1  1  0  0  0
 17  2  1  0  0  0
 20  3  1  0  0  0
 24  4  1  0  0  0
 27  5  1  0  0  0
 31  6  1  0  0  0
 34  7  1  0  0  0
 37  8  1  0  0  0
 38  9  1  0  0  0
 38 46  1  0  0  0
 39 65  1  0  0  0
 39 17  1  0  0  0
 40 63  1  0  0  0
 40 20  1  0  0  0
 41 74  1  0  0  0
 41 24  1  0  0  0
 42 72  1  0  0  0
 42 27  1  0  0  0
 43 84  1  0  0  0
 43 31  1  0  0  0
 44 82  1  0  0  0
 44 34  1  0  0  0
 45 48  1  0  0  0
 45 37  1  0  0  0
 47 48  1  0  0  0
 49 87  1  0  0  0
 49 85  1  0  0  0
 50 51  1  0  0  0
 52 53  1  0  0  0
 53 88  1  0  0  0
 54 89  1  0  0  0
 56 57  1  0  0  0
 57 68  1  0  0  0
 58 59  1  0  0  0
 59 61  1  0  0  0
 60 55  1  0  0  0
 61 90  1  0  0  0
 63 64  1  0  0  0
 65 66  1  0  0  0
 67 62  1  0  0  0
 68 91  1  0  0  0
 70 71  1  0  0  0
 72 73  1  0  0  0
 74 69  1  0  0  0
 75 76  1  0  0  0
 76 78  1  0  0  0
 77 51  1  0  0  0
 78 92  1  0  0  0
 80 81  1  0  0  0
 82 83  1  0  0  0
 84 79  1  0  0  0
 86 46  1  0  0  0
 87 50  1  0  0  0
 88 54  1  0  0  0
 89 55  1  0  0  0
 90 62  1  0  0  0
 91 69  1  0  0  0
 92 79  1  0  0  0
 38 10  2  0  0  0
 38 11  2  0  0  0
 39 15  2  0  0  0
 39 16  2  0  0  0
 40 18  2  0  0  0
 40 19  2  0  0  0
 41 22  2  0  0  0
 41 23  2  0  0  0
 42 25  2  0  0  0
 42 26  2  0  0  0
 43 29  2  0  0  0
 43 30  2  0  0  0
 44 32  2  0  0  0
 44 33  2  0  0  0
 45 35  2  0  0  0
 45 36  2  0  0  0
 46 47  2  0  0  0
 48 49  2  0  0  0
 50 12  2  0  0  0
 51 52  2  0  0  0
 53 75  2  0  0  0
 54 13  2  0  0  0
 55 56  2  0  0  0
 57 58  2  0  0  0
 59 60  2  0  0  0
 61 14  2  0  0  0
 62 63  2  0  0  0
 64 65  2  0  0  0
 66 67  2  0  0  0
 68 21  2  0  0  0
 69 70  2  0  0  0
 71 72  2  0  0  0
 73 74  2  0  0  0
 76 77  2  0  0  0
 78 28  2  0  0  0
 79 80  2  0  0  0
 81 82  2  0  0  0
 83 84  2  0  0  0
 85 86  2  0  0  0
M  END
> <rmsd>
0.775108635

$$$$
MolPort-047-659-963


 57 61  0  0  0  0  0  0  0  0999 V2000
    7.9958    4.0759   55.2148 C   0  0  0  0  0
    6.5975    4.0697   55.7071 C   0  0  0  0  0
    4.6830    5.3058   56.7921 C   0  0  0  0  0
    4.1175    6.7182   56.5727 C   0  0  0  0  0
    4.7074    8.2962   55.1220 C   0  0  0  0  0
    6.0886    8.1840   54.4590 C   0  0  0  0  0
    6.0178    8.4650   52.9536 C   0  0  0  0  0
    7.1893    7.8025   52.2561 C   0  0  0  0  0
    3.7362    8.8181   52.8428 C   0  0  0  0  0
    2.7193    9.6283   51.0086 C   0  0  0  0  0
    1.2654    9.6460   51.5054 C   0  0  0  0  0
    0.3078    9.4072   50.3378 C   0  0  0  0  0
    0.7778   10.1043   49.0607 C   0  0  0  0  0
   -0.3117   11.2439   47.1276 C   0  0  0  0  0
   -1.5028   11.7092   46.5649 C   0  0  0  0  0
   -1.4849   12.3646   45.3332 C   0  0  0  0  0
   -0.2723   12.5589   44.6420 C   0  0  0  0  0
    0.9182   12.0812   45.2035 C   0  0  0  0  0
    0.8993   11.4281   46.4362 C   0  0  0  0  0
    2.9035   10.5910   49.8273 C   0  0  0  0  0
    3.7267    9.9419   48.7202 C   0  0  0  0  0
    3.8041    9.2404   54.3251 C   0  0  0  0  0
    2.8860    6.7277   58.4677 C   0  0  0  0  0
    1.5694    7.1581   59.0938 C   0  0  0  0  0
    3.2850    5.3042   58.9024 C   0  0  0  0  0
    4.6610    4.9860   58.2929 C   0  0  0  0  0
    5.8979    3.6997   59.6121 C   0  0  0  0  0
    6.0088    3.4981   61.8432 C   0  0  0  0  0
    5.4590    2.7990   63.0741 C   0  0  0  0  0
    7.5432    3.3513   61.7898 C   0  0  0  0  0
    8.0255    2.6693   60.4961 C   0  0  0  0  0
    7.2731    3.1393   59.2424 C   0  0  0  0  0
    5.9011    3.0274   55.6098 O   0  0  0  0  0
    4.1250    7.0265   55.2084 O   0  0  0  0  0
    6.9664    9.0896   55.0583 O   0  0  0  0  0
    7.2993    8.2870   50.9515 O   0  0  0  0  0
    4.8062    7.9862   52.4181 O   0  0  0  0  0
    3.6251    9.9548   52.0293 O   0  0  0  0  0
    0.9736   10.8635   52.1088 O   0  0  0  0  0
    0.2099    8.0450   50.0931 O   0  0  0  0  0
   -0.3622   10.6165   48.3672 O   0  0  0  0  0
    0.9344   13.3989   42.6862 O   0  0  0  0  0
   -1.2819   13.7987   42.9513 O   0  0  0  0  0
    1.6824   11.1386   49.3510 O   0  0  0  0  0
    3.9657   10.8423   47.6958 O   0  0  0  0  0
    2.5273    9.2998   54.8769 O   0  0  0  0  0
    2.8000    6.7931   57.0653 O   0  0  0  0  0
    1.6970    7.2432   60.4782 O   0  0  0  0  0
    2.3336    4.3755   58.4760 O   0  0  0  0  0
    5.0128    3.6524   58.5286 O   0  0  0  0  0
    5.3724    2.9883   60.6983 O   0  0  0  0  0
    5.7945    3.5241   64.2241 O   0  0  0  0  0
    8.1324    4.6158   61.9131 O   0  0  0  0  0
    9.3983    2.8463   60.3258 O   0  0  0  0  0
    7.1354    2.0562   58.3740 O   0  0  0  0  0
    6.0538    5.2452   56.2925 N   0  0  0  0  0
   -0.2451   13.2594   43.3963 N   0  0  0  0  0
  1  2  1  0  0  0
  2 56  1  0  0  0
  3 56  1  0  0  0
  3  4  1  0  0  0
  4 34  1  0  0  0
  4 47  1  0  0  0
  5 34  1  0  0  0
  5  6  1  0  0  0
  6 35  1  0  0  0
  6  7  1  0  0  0
  7  8  1  0  0  0
  7 37  1  0  0  0
  8 36  1  0  0  0
  9 37  1  0  0  0
  9 38  1  0  0  0
  9 22  1  0  0  0
 10 38  1  0  0  0
 10 11  1  0  0  0
 11 39  1  0  0  0
 11 12  1  0  0  0
 12 40  1  0  0  0
 12 13  1  0  0  0
 13 41  1  0  0  0
 13 44  1  0  0  0
 14 41  1  0  0  0
 15 16  1  0  0  0
 17 18  1  0  0  0
 17 57  1  0  0  0
 19 14  1  0  0  0
 20 44  1  0  0  0
 20 21  1  0  0  0
 20 10  1  0  0  0
 21 45  1  0  0  0
 22 46  1  0  0  0
 22  5  1  0  0  0
 23 47  1  0  0  0
 23 24  1  0  0  0
 23 25  1  0  0  0
 24 48  1  0  0  0
 25 49  1  0  0  0
 25 26  1  0  0  0
 26 50  1  0  0  0
 26  3  1  0  0  0
 27 50  1  0  0  0
 27 51  1  0  0  0
 28 51  1  0  0  0
 28 29  1  0  0  0
 28 30  1  0  0  0
 29 52  1  0  0  0
 30 53  1  0  0  0
 30 31  1  0  0  0
 31 54  1  0  0  0
 31 32  1  0  0  0
 32 55  1  0  0  0
 32 27  1  0  0  0
 57 42  1  0  0  0
  2 33  2  0  0  0
 14 15  2  0  0  0
 16 17  2  0  0  0
 18 19  2  0  0  0
 57 43  2  0  0  0
M  CHG  2  57   1  42  -1
M  END
> <rmsd>
0.688925505

$$$$
MolPort-047-659-963


 57 61  0  0  0  0  0  0  0  0999 V2000
    7.7238    4.3892   54.8365 C   0  0  0  0  0
    6.3786    4.2958   55.4525 C   0  0  0  0  0
    4.5053    5.4041   56.7303 C   0  0  0  0  0
    3.8449    6.7852   56.5915 C   0  0  0  0  0
    4.2121    8.4163   55.1262 C   0  0  0  0  0
    5.5312    8.3931   54.3394 C   0  0  0  0  0
    5.3083    8.6926   52.8525 C   0  0  0  0  0
    6.4463    8.1086   52.0391 C   0  0  0  0  0
    3.0101    8.9167   52.9547 C   0  0  0  0  0
    1.7871    9.6957   51.2364 C   0  0  0  0  0
    0.3858    9.6229   51.8623 C   0  0  0  0  0
   -0.6594    9.3478   50.7810 C   0  0  0  0  0
   -0.3469   10.0900   49.4813 C   0  0  0  0  0
   -1.6692   11.1951   47.6777 C   0  0  0  0  0
   -2.9305   11.6003   47.2341 C   0  0  0  0  0
   -3.0611   12.2745   46.0194 C   0  0  0  0  0
   -1.9291   12.5481   45.2261 C   0  0  0  0  0
   -0.6678   12.1305   45.6682 C   0  0  0  0  0
   -0.5383   11.4585   46.8840 C   0  0  0  0  0
    1.8095   10.6853   50.0632 C   0  0  0  0  0
    2.5632   10.1011   48.8736 C   0  0  0  0  0
    3.1891    9.3195   54.4333 C   0  0  0  0  0
    2.7923    6.6955   58.5895 C   0  0  0  0  0
    1.5164    7.0406   59.3402 C   0  0  0  0  0
    3.3074    5.2906   58.9574 C   0  0  0  0  0
    4.6377    5.0606   58.2202 C   0  0  0  0  0
    6.0589    3.8269   59.3961 C   0  0  0  0  0
    6.3833    3.5978   61.6037 C   0  0  0  0  0
    5.9874    2.8497   62.8646 C   0  0  0  0  0
    7.9122    3.5395   61.4094 C   0  0  0  0  0
    8.3118    2.9059   60.0639 C   0  0  0  0  0
    7.4236    3.3514   58.8928 C   0  0  0  0  0
    5.7350    3.2171   55.3969 O   0  0  0  0  0
    3.7111    7.1142   55.2387 O   0  0  0  0  0
    6.4085    9.3380   54.8756 O   0  0  0  0  0
    6.4102    8.6185   50.7400 O   0  0  0  0  0
    4.0814    8.1537   52.4186 O   0  0  0  0  0
    2.7626   10.0576   52.1779 O   0  0  0  0  0
    0.0831   10.8124   52.5142 O   0  0  0  0  0
   -0.7036    7.9862   50.5184 O   0  0  0  0  0
   -1.5719   10.5470   48.9038 O   0  0  0  0  0
   -0.9537   13.4854   43.1871 O   0  0  0  0  0
   -3.1555   13.7541   43.6587 O   0  0  0  0  0
    0.5217   11.1697   49.7100 O   0  0  0  0  0
    2.6578   11.0293   47.8504 O   0  0  0  0  0
    1.9665    9.2976   55.0988 O   0  0  0  0  0
    2.5756    6.7773   57.2022 O   0  0  0  0  0
    1.7645    7.1116   60.7090 O   0  0  0  0  0
    2.3740    4.3158   58.5995 O   0  0  0  0  0
    5.0828    3.7457   58.3960 O   0  0  0  0  0
    5.6745    3.0701   60.5105 O   0  0  0  0  0
    6.3854    3.5751   63.9942 O   0  0  0  0  0
    8.4393    4.8335   61.5049 O   0  0  0  0  0
    9.6515    3.1634   59.7744 O   0  0  0  0  0
    7.2677    2.2757   58.0185 O   0  0  0  0  0
    5.8262    5.4293   56.1082 N   0  0  0  0  0
   -2.0541   13.2680   43.9974 N   0  0  0  0  0
  1  2  1  0  0  0
  2 56  1  0  0  0
  3 56  1  0  0  0
  3  4  1  0  0  0
  4 34  1  0  0  0
  4 47  1  0  0  0
  5 34  1  0  0  0
  5  6  1  0  0  0
  6 35  1  0  0  0
  6  7  1  0  0  0
  7  8  1  0  0  0
  7 37  1  0  0  0
  8 36  1  0  0  0
  9 37  1  0  0  0
  9 38  1  0  0  0
  9 22  1  0  0  0
 10 38  1  0  0  0
 10 11  1  0  0  0
 11 39  1  0  0  0
 11 12  1  0  0  0
 12 40  1  0  0  0
 12 13  1  0  0  0
 13 41  1  0  0  0
 13 44  1  0  0  0
 14 41  1  0  0  0
 15 16  1  0  0  0
 17 18  1  0  0  0
 17 57  1  0  0  0
 19 14  1  0  0  0
 20 44  1  0  0  0
 20 21  1  0  0  0
 20 10  1  0  0  0
 21 45  1  0  0  0
 22 46  1  0  0  0
 22  5  1  0  0  0
 23 47  1  0  0  0
 23 24  1  0  0  0
 23 25  1  0  0  0
 24 48  1  0  0  0
 25 49  1  0  0  0
 25 26  1  0  0  0
 26 50  1  0  0  0
 26  3  1  0  0  0
 27 50  1  0  0  0
 27 51  1  0  0  0
 28 51  1  0  0  0
 28 29  1  0  0  0
 28 30  1  0  0  0
 29 52  1  0  0  0
 30 53  1  0  0  0
 30 31  1  0  0  0
 31 54  1  0  0  0
 31 32  1  0  0  0
 32 55  1  0  0  0
 32 27  1  0  0  0
 57 42  1  0  0  0
  2 33  2  0  0  0
 14 15  2  0  0  0
 16 17  2  0  0  0
 18 19  2  0  0  0
 57 43  2  0  0  0
M  CHG  2  57   1  42  -1
M  END
> <rmsd>
0.768614948

$$$$
MolPort-042-652-796 MCULE-3917881470 MCULE-9833041769 PubChem-58850802


 63 66  0  0  0  0  0  0  0  0999 V2000
    4.5167   12.8061   43.0059 C   0  0  0  0  0
    3.4424   12.5914   44.0495 C   0  0  0  0  0
    3.9825   11.6829   45.1479 C   0  0  0  0  0
    2.7213   12.6516   47.1067 C   0  0  0  0  0
    1.5849   10.9765   47.7504 C   0  0  0  0  0
    2.3333   10.5972   46.6923 C   0  0  0  0  0
    1.4518    8.4418   46.7612 C   0  0  0  0  0
    0.7268   10.0686   48.3540 C   0  0  0  0  0
   -1.0184    9.5344   50.1012 C   0  0  0  0  0
   -0.9416    7.5888   51.6940 C   0  0  0  0  0
   -2.9070    6.3229   52.1939 C   0  0  0  0  0
   -0.9004    5.8148   53.2664 C   0  0  0  0  0
   -0.2531    6.7974   52.6039 C   0  0  0  0  0
    1.1288    5.8593   53.9180 C   0  0  0  0  0
   -0.3292    4.1365   55.0414 C   0  0  0  0  0
   -1.0066    4.7003   56.2882 C   0  0  0  0  0
   -1.7606    3.6288   57.0676 C   0  0  0  0  0
    0.8418    4.6347   57.6460 C   0  0  0  0  0
    0.6937    5.8313   60.5218 C   0  0  0  0  0
    1.8109    6.5988   62.5863 C   0  0  0  0  0
    2.8217    7.4210   64.6888 C   0  0  0  0  0
    2.4801    8.4626   65.7315 C   0  0  0  0  0
    3.1617    6.1160   65.3844 C   0  0  0  0  0
    3.4975    5.6987   56.4514 C   0  0  0  0  0
    5.6884    4.6872   55.9693 C   0  0  0  0  0
    7.9131    3.6735   55.6161 C   0  0  0  0  0
    9.3479    4.0644   55.8967 C   0  0  0  0  0
    7.6811    2.2522   56.0972 C   0  0  0  0  0
    1.2465   12.7957   43.8282 C   0  0  0  0  0
    0.5021   10.6838   41.3806 C   0  0  0  0  0
   -0.7953   10.3355   39.3061 C   0  0  0  0  0
   -2.0031    9.8746   37.2028 C   0  0  0  0  0
   -2.6810    8.6823   36.5630 C   0  0  0  0  0
   -1.0664   10.5149   36.1940 C   0  0  0  0  0
    3.0542   11.6377   46.2672 N   0  0  0  0  0
    1.8047   12.2720   48.0431 N   0  0  0  0  0
    2.2918    9.3468   46.1731 N   0  0  0  0  0
    0.6787    8.8029   47.8370 N   0  0  0  0  0
   -0.0961   10.4548   49.4564 N   0  0  0  0  0
   -0.2863    8.6426   50.9869 N   0  0  0  0  0
   -2.2727    7.3281   51.5076 N   0  0  0  0  0
   -2.2182    5.5523   53.0896 N   0  0  0  0  0
    1.0363    6.8551   52.9899 N   0  0  0  0  0
   -0.0480    5.2070   54.0966 N   0  0  0  0  0
   -0.1400    5.4738   57.0919 O   0  0  0  0  0
    3.0761    4.7266   59.2057 O   0  0  0  0  0
    1.3591    6.6688   59.6215 O   0  0  0  0  0
    0.6624    6.4305   61.8113 O   0  0  0  0  0
    2.9274    6.1762   62.1764 O   0  0  0  0  0
    1.7059    7.2381   63.8239 O   0  0  0  0  0
    2.9376    6.5931   57.3655 O   0  0  0  0  0
    4.8862    5.5528   56.7139 O   0  0  0  0  0
    5.1980    4.0209   55.0161 O   0  0  0  0  0
    7.0402    4.5665   56.2959 O   0  0  0  0  0
    2.3288   12.0002   43.4485 O   0  0  0  0  0
    0.6217   13.5164   41.2721 O   0  0  0  0  0
   -1.3018   13.7718   43.0161 O   0  0  0  0  0
   -0.5259   11.2849   42.1169 O   0  0  0  0  0
   -0.0466    9.8403   40.3748 O   0  0  0  0  0
   -1.0364   11.5716   39.2102 O   0  0  0  0  0
   -1.2714    9.4439   38.3441 O   0  0  0  0  0
    2.1005    5.6392   58.4936 P   0  0  0  0  0
    0.0177   12.8518   42.4916 P   0  0  0  0  0
  2  1  1  0  0  0
  2  3  1  0  0  0
  2 55  1  0  0  0
  3 35  1  0  0  0
  5 36  1  0  0  0
  6 37  1  0  0  0
  6 35  1  0  0  0
  7 38  1  0  0  0
  8 39  1  0  0  0
  8  5  1  0  0  0
  9 39  1  0  0  0
  9 40  1  0  0  0
 11 41  1  0  0  0
 12 42  1  0  0  0
 13 43  1  0  0  0
 13 10  1  0  0  0
 14 44  1  0  0  0
 15 44  1  0  0  0
 15 16  1  0  0  0
 16 17  1  0  0  0
 16 45  1  0  0  0
 18 45  1  0  0  0
 18 62  1  0  0  0
 19 47  1  0  0  0
 19 48  1  0  0  0
 20 48  1  0  0  0
 20 50  1  0  0  0
 21 50  1  0  0  0
 21 22  1  0  0  0
 21 23  1  0  0  0
 24 51  1  0  0  0
 24 52  1  0  0  0
 25 52  1  0  0  0
 25 54  1  0  0  0
 26 54  1  0  0  0
 26 27  1  0  0  0
 26 28  1  0  0  0
 29 55  1  0  0  0
 29 63  1  0  0  0
 30 58  1  0  0  0
 30 59  1  0  0  0
 31 59  1  0  0  0
 31 61  1  0  0  0
 32 61  1  0  0  0
 32 33  1  0  0  0
 32 34  1  0  0  0
 35  4  1  0  0  0
 40 10  1  0  0  0
 44 12  1  0  0  0
 62 47  1  0  0  0
 62 51  1  0  0  0
 63 57  1  0  0  0
 63 58  1  0  0  0
  4 36  2  0  0  0
  5  6  2  0  0  0
  7 37  2  0  0  0
  8 38  2  0  0  0
 10 41  2  0  0  0
 11 42  2  0  0  0
 12 13  2  0  0  0
 14 43  2  0  0  0
 20 49  2  0  0  0
 25 53  2  0  0  0
 31 60  2  0  0  0
 62 46  2  0  0  0
 63 56  2  0  0  0
M  END
> <rmsd>
0.790305674

$$$$
MolPort-016-936-533 ChemDiv-V003-3439 MCULE-1437433516 PubChem-46148613 ZINC000103047075


 42 47  0  0  0  0  0  0  0  0999 V2000
   -2.0019   14.9297   43.1379 C   0  0  0  0  0
   -0.3404   13.1582   43.6185 C   0  0  0  0  0
    0.4926   12.1412   43.1282 C   0  0  0  0  0
    1.3405   10.8768   41.1755 C   0  0  0  0  0
    1.2792   11.3977   44.0232 C   0  0  0  0  0
    1.2438   11.6559   45.4013 C   0  0  0  0  0
    0.4064   12.6728   45.8796 C   0  0  0  0  0
   -0.3787   13.4173   44.9974 C   0  0  0  0  0
    2.0786   10.8784   46.3417 C   0  0  0  0  0
    3.6218    9.4727   48.1598 C   0  0  0  0  0
    3.7311    9.1845   46.7956 C   0  0  0  0  0
    2.9552    9.8913   45.8817 C   0  0  0  0  0
    4.3267    9.1527   50.5470 C   0  0  0  0  0
    5.2719    8.3167   51.4060 C   0  0  0  0  0
    5.1785    6.4910   49.6498 C   0  0  0  0  0
    5.3217    7.6953   48.7182 C   0  0  0  0  0
    4.8689    5.9274   52.0779 C   0  0  0  0  0
    4.7788    6.3456   53.5205 C   0  0  0  0  0
    3.1890    4.8134   54.6984 C   0  0  0  0  0
    2.7825    5.3158   56.0430 C   0  0  0  0  0
    2.2980    6.6376   56.1794 C   0  0  0  0  0
    1.9362    7.1395   57.4433 C   0  0  0  0  0
    2.0782    6.2877   58.5369 C   0  0  0  0  0
    2.1169    5.3633   60.6204 C   0  0  0  0  0
    2.5480    5.0195   58.4085 C   0  0  0  0  0
    2.9158    4.4879   57.1743 C   0  0  0  0  0
    5.6708    4.4376   54.9066 C   0  0  0  0  0
    7.0826    4.9008   54.6662 C   0  0  0  0  0
    7.9330    4.7705   55.9163 C   0  0  0  0  0
    8.7624    3.6968   55.2387 C   0  0  0  0  0
    7.9061    3.8198   53.9930 C   0  0  0  0  0
   -1.1200   13.8968   42.7209 O   0  0  0  0  0
    0.5245   11.8870   41.7530 O   0  0  0  0  0
    4.7109    4.7157   51.7619 O   0  0  0  0  0
    1.8005    6.5431   59.8654 O   0  0  0  0  0
    2.5894    4.4163   59.6505 O   0  0  0  0  0
    5.4575    3.3653   55.5397 O   0  0  0  0  0
    2.0081   11.1197   47.6799 N   0  0  0  0  0
    2.7514   10.4415   48.5562 N   0  0  0  0  0
    4.4082    8.7643   49.1333 N   0  0  0  0  0
    5.1288    6.9035   51.0572 N   0  0  0  0  0
    4.5628    5.2060   54.4071 N   0  0  0  0  0
  1 32  1  0  0  0
  2 32  1  0  0  0
  3 33  1  0  0  0
  3  5  1  0  0  0
  4 33  1  0  0  0
  6  7  1  0  0  0
  6  9  1  0  0  0
  8  2  1  0  0  0
 10 11  1  0  0  0
 10 40  1  0  0  0
 12  9  1  0  0  0
 13 40  1  0  0  0
 13 14  1  0  0  0
 14 41  1  0  0  0
 15 41  1  0  0  0
 15 16  1  0  0  0
 16 40  1  0  0  0
 18 17  1  0  0  0
 18 42  1  0  0  0
 19 42  1  0  0  0
 19 20  1  0  0  0
 21 22  1  0  0  0
 23 35  1  0  0  0
 24 35  1  0  0  0
 24 36  1  0  0  0
 25 36  1  0  0  0
 25 23  1  0  0  0
 26 20  1  0  0  0
 28 27  1  0  0  0
 28 29  1  0  0  0
 29 30  1  0  0  0
 30 31  1  0  0  0
 31 28  1  0  0  0
 38 39  1  0  0  0
 41 17  1  0  0  0
 42 27  1  0  0  0
  2  3  2  0  0  0
  5  6  2  0  0  0
  7  8  2  0  0  0
  9 38  2  0  0  0
 10 39  2  0  0  0
 11 12  2  0  0  0
 17 34  2  0  0  0
 20 21  2  0  0  0
 22 23  2  0  0  0
 25 26  2  0  0  0
 27 37  2  0  0  0
M  END
> <rmsd>
0.601225913

$$$$
MolPort-047-947-825


 56 61  0  0  0  0  0  0  0  0999 V2000
   -2.0570   13.9311   44.2448 C   0  0  0  0  0
   -1.3355   12.4161   42.6394 C   0  0  0  0  0
   -0.4719   12.2990   41.3944 C   0  0  0  0  0
   -2.7639   12.0783   42.2189 C   0  0  0  0  0
   -0.8602   11.4061   43.6568 C   0  0  0  0  0
    0.3597   11.4686   44.1964 C   0  0  0  0  0
    0.7811   10.4546   45.2146 C   0  0  0  0  0
    2.1945   10.7117   45.7497 C   0  0  0  0  0
    2.2869   12.0850   46.4015 C   0  0  0  0  0
    2.6069    9.6273   46.7767 C   0  0  0  0  0
    2.8494    8.2654   46.1287 C   0  0  0  0  0
    2.3149    7.2305   47.0998 C   0  0  0  0  0
    1.2212    7.9311   47.8971 C   0  0  0  0  0
   -0.0582    7.8753   47.0599 C   0  0  0  0  0
    0.9173    7.2094   49.2339 C   0  0  0  0  0
    1.1407    5.6828   49.2511 C   0  0  0  0  0
    2.1885    5.2987   50.2551 C   0  0  0  0  0
    2.1938    5.8527   51.4808 C   0  0  0  0  0
    1.1715    6.9488   51.7451 C   0  0  0  0  0
    1.1454    7.5366   53.1680 C   0  0  0  0  0
    2.4927    7.4494   53.8650 C   0  0  0  0  0
    2.9236    5.9919   53.9026 C   0  0  0  0  0
    3.4149    5.4027   55.9899 C   0  0  0  0  0
    2.6862    6.0798   58.0173 C   0  0  0  0  0
    2.5654    7.2817   58.9441 C   0  0  0  0  0
    3.2563    4.8631   58.7687 C   0  0  0  0  0
    3.4326    3.6920   57.7990 C   0  0  0  0  0
    4.1077    4.1344   56.4984 C   0  0  0  0  0
    5.2964    2.6184   55.3841 C   0  0  0  0  0
    7.3723    3.0442   54.4913 C   0  0  0  0  0
    8.0401    3.7968   55.6328 C   0  0  0  0  0
    7.6849    1.5372   54.5578 C   0  0  0  0  0
    6.4569    0.7158   54.1808 C   0  0  0  0  0
    5.2356    1.1308   55.0206 C   0  0  0  0  0
    3.2624    5.4643   52.4944 C   0  0  0  0  0
    3.3621    3.9471   52.5761 C   0  0  0  0  0
    4.6069    6.0118   52.0300 C   0  0  0  0  0
    1.0802    7.9755   50.5791 C   0  0  0  0  0
   -0.1714    8.8149   50.7900 C   0  0  0  0  0
    2.2883    8.8937   50.5077 C   0  0  0  0  0
    2.7417    9.5083   49.2142 C   0  0  0  0  0
    1.7539    9.3824   48.0481 C   0  0  0  0  0
    0.6338   10.4068   48.2668 C   0  0  0  0  0
   -1.2294   13.7483   43.1186 O   0  0  0  0  0
    3.0965   10.6858   44.6830 O   0  0  0  0  0
    3.9959    5.8252   54.7897 O   0  0  0  0  0
    3.5389    6.4191   56.9515 O   0  0  0  0  0
    1.4548    7.1423   59.7772 O   0  0  0  0  0
    2.3919    4.4793   59.7973 O   0  0  0  0  0
    4.1875    2.6881   58.4072 O   0  0  0  0  0
    4.0019    3.1208   55.5394 O   0  0  0  0  0
    5.9918    3.3510   54.4027 O   0  0  0  0  0
    8.7376    1.2387   53.6955 O   0  0  0  0  0
    6.7153   -0.6528   54.2948 O   0  0  0  0  0
    5.1502    0.3812   56.1882 O   0  0  0  0  0
    2.9199    9.1711   51.5172 O   0  0  0  0  0
  1 44  1  0  0  0
  2 44  1  0  0  0
  2  3  1  0  0  0
  2  4  1  0  0  0
  2  5  1  0  0  0
  7  6  1  0  0  0
  7  8  1  0  0  0
  8  9  1  0  0  0
  8 45  1  0  0  0
  8 10  1  0  0  0
 10 11  1  0  0  0
 11 12  1  0  0  0
 12 13  1  0  0  0
 13 14  1  0  0  0
 13 15  1  0  0  0
 15 16  1  0  0  0
 16 17  1  0  0  0
 19 18  1  0  0  0
 19 20  1  0  0  0
 19 38  1  0  0  0
 20 21  1  0  0  0
 21 22  1  0  0  0
 22 46  1  0  0  0
 22 35  1  0  0  0
 23 46  1  0  0  0
 23 47  1  0  0  0
 24 47  1  0  0  0
 24 25  1  0  0  0
 24 26  1  0  0  0
 25 48  1  0  0  0
 26 49  1  0  0  0
 26 27  1  0  0  0
 27 50  1  0  0  0
 27 28  1  0  0  0
 28 51  1  0  0  0
 28 23  1  0  0  0
 29 51  1  0  0  0
 29 52  1  0  0  0
 30 52  1  0  0  0
 30 31  1  0  0  0
 30 32  1  0  0  0
 32 53  1  0  0  0
 32 33  1  0  0  0
 33 54  1  0  0  0
 33 34  1  0  0  0
 34 55  1  0  0  0
 34 29  1  0  0  0
 35 36  1  0  0  0
 35 37  1  0  0  0
 35 18  1  0  0  0
 38 39  1  0  0  0
 38 40  1  0  0  0
 38 15  1  0  0  0
 41 40  1  0  0  0
 41 42  1  0  0  0
 42 43  1  0  0  0
 42 10  1  0  0  0
 42 13  1  0  0  0
  5  6  2  0  0  0
 17 18  2  0  0  0
 40 56  2  0  0  0
M  END
> <rmsd>
0.573812187

$$$$
MolPort-047-947-825


 56 61  0  0  0  0  0  0  0  0999 V2000
   -1.7837   14.2665   43.6587 C   0  0  0  0  0
   -1.4683   12.4298   42.2730 C   0  0  0  0  0
   -0.7374   11.9765   41.0201 C   0  0  0  0  0
   -2.9619   12.3088   41.9806 C   0  0  0  0  0
   -1.1033   11.5046   43.4096 C   0  0  0  0  0
    0.1461   11.4140   43.8723 C   0  0  0  0  0
    0.4576   10.4950   45.0130 C   0  0  0  0  0
    1.9310   10.5568   45.4316 C   0  0  0  0  0
    2.3157   11.9673   45.8581 C   0  0  0  0  0
    2.2218    9.5723   46.5923 C   0  0  0  0  0
    2.1680    8.1108   46.1513 C   0  0  0  0  0
    1.5343    7.3438   47.2958 C   0  0  0  0  0
    0.6470    8.3433   48.0282 C   0  0  0  0  0
   -0.6824    8.4089   47.2737 C   0  0  0  0  0
    0.3232    7.8897   49.4737 C   0  0  0  0  0
    0.2725    6.3666   49.7156 C   0  0  0  0  0
    1.3093    5.9406   50.7140 C   0  0  0  0  0
    1.5071    6.6530   51.8376 C   0  0  0  0  0
    0.7192    7.9474   51.9794 C   0  0  0  0  0
    0.9072    8.7268   53.2940 C   0  0  0  0  0
    2.2671    8.4895   53.9289 C   0  0  0  0  0
    2.4337    6.9976   54.1700 C   0  0  0  0  0
    2.9713    6.6311   56.2964 C   0  0  0  0  0
    2.5325    7.7151   58.2282 C   0  0  0  0  0
    2.6986    9.0383   58.9630 C   0  0  0  0  0
    2.9333    6.5333   59.1296 C   0  0  0  0  0
    2.8237    5.2236   58.3450 C   0  0  0  0  0
    3.4648    5.3415   56.9600 C   0  0  0  0  0
    4.2761    3.4864   56.0361 C   0  0  0  0  0
    6.3198    3.3842   54.9871 C   0  0  0  0  0
    7.1963    4.1536   55.9644 C   0  0  0  0  0
    6.3638    1.8705   55.2701 C   0  0  0  0  0
    4.9842    1.2482   55.0855 C   0  0  0  0  0
    3.9242    2.0001   55.9103 C   0  0  0  0  0
    2.5643    6.2203   52.8452 C   0  0  0  0  0
    2.3989    4.7388   53.1553 C   0  0  0  0  0
    3.9450    6.4344   52.2361 C   0  0  0  0  0
    0.7224    8.7958   50.6747 C   0  0  0  0  0
   -0.3402    9.8760   50.8148 C   0  0  0  0  0
    2.0654    9.4518   50.4029 C   0  0  0  0  0
    2.5201    9.7796   49.0092 C   0  0  0  0  0
    1.4390    9.6756   47.9267 C   0  0  0  0  0
    0.5389   10.9121   48.0394 C   0  0  0  0  0
   -1.0907   13.7732   42.5348 O   0  0  0  0  0
    2.7294   10.2104   44.3387 O   0  0  0  0  0
    3.5243    6.7616   55.0182 O   0  0  0  0  0
    3.3475    7.7330   57.0822 O   0  0  0  0  0
    1.6482    9.2297   59.8613 O   0  0  0  0  0
    2.0960    6.4690   60.2465 O   0  0  0  0  0
    3.4327    4.1935   59.0630 O   0  0  0  0  0
    3.1073    4.2391   56.1755 O   0  0  0  0  0
    5.0131    3.9280   54.9202 O   0  0  0  0  0
    7.2774    1.2602   54.4135 O   0  0  0  0  0
    5.0033   -0.1140   55.3967 O   0  0  0  0  0
    3.7969    1.4543   57.1824 O   0  0  0  0  0
    2.8119    9.7474   51.3251 O   0  0  0  0  0
  1 44  1  0  0  0
  2 44  1  0  0  0
  2  3  1  0  0  0
  2  4  1  0  0  0
  2  5  1  0  0  0
  7  6  1  0  0  0
  7  8  1  0  0  0
  8  9  1  0  0  0
  8 45  1  0  0  0
  8 10  1  0  0  0
 10 11  1  0  0  0
 11 12  1  0  0  0
 12 13  1  0  0  0
 13 14  1  0  0  0
 13 15  1  0  0  0
 15 16  1  0  0  0
 16 17  1  0  0  0
 19 18  1  0  0  0
 19 20  1  0  0  0
 19 38  1  0  0  0
 20 21  1  0  0  0
 21 22  1  0  0  0
 22 46  1  0  0  0
 22 35  1  0  0  0
 23 46  1  0  0  0
 23 47  1  0  0  0
 24 47  1  0  0  0
 24 25  1  0  0  0
 24 26  1  0  0  0
 25 48  1  0  0  0
 26 49  1  0  0  0
 26 27  1  0  0  0
 27 50  1  0  0  0
 27 28  1  0  0  0
 28 51  1  0  0  0
 28 23  1  0  0  0
 29 51  1  0  0  0
 29 52  1  0  0  0
 30 52  1  0  0  0
 30 31  1  0  0  0
 30 32  1  0  0  0
 32 53  1  0  0  0
 32 33  1  0  0  0
 33 54  1  0  0  0
 33 34  1  0  0  0
 34 55  1  0  0  0
 34 29  1  0  0  0
 35 36  1  0  0  0
 35 37  1  0  0  0
 35 18  1  0  0  0
 38 39  1  0  0  0
 38 40  1  0  0  0
 38 15  1  0  0  0
 41 40  1  0  0  0
 41 42  1  0  0  0
 42 43  1  0  0  0
 42 10  1  0  0  0
 42 13  1  0  0  0
  5  6  2  0  0  0
 17 18  2  0  0  0
 40 56  2  0  0  0
M  END
> <rmsd>
0.778302848

$$$$
MolPort-047-947-825


 56 61  0  0  0  0  0  0  0  0999 V2000
   -2.0211   13.8643   44.1163 C   0  0  0  0  0
   -1.1068   12.4870   42.4853 C   0  0  0  0  0
   -0.1971   12.5001   41.2681 C   0  0  0  0  0
   -2.4820   12.0312   42.0035 C   0  0  0  0  0
   -0.5688   11.4889   43.4829 C   0  0  0  0  0
    0.6219   11.6465   44.0667 C   0  0  0  0  0
    1.1066   10.6391   45.0631 C   0  0  0  0  0
    2.4712   11.0089   45.6560 C   0  0  0  0  0
    2.4101   12.3590   46.3582 C   0  0  0  0  0
    2.9534    9.9303   46.6585 C   0  0  0  0  0
    3.3463    8.6233   45.9723 C   0  0  0  0  0
    2.8836    7.5061   46.8873 C   0  0  0  0  0
    1.7029    8.0686   47.6698 C   0  0  0  0  0
    0.4619    7.9233   46.7868 C   0  0  0  0  0
    1.4279    7.2709   48.9691 C   0  0  0  0  0
    1.7966    5.7729   48.9409 C   0  0  0  0  0
    2.8443    5.4522   49.9670 C   0  0  0  0  0
    2.7576    5.9571   51.2106 C   0  0  0  0  0
    1.6267    6.9402   51.4771 C   0  0  0  0  0
    1.4992    7.4682   52.9178 C   0  0  0  0  0
    2.8259    7.4831   53.6582 C   0  0  0  0  0
    3.3938    6.0728   53.6600 C   0  0  0  0  0
    3.8735    5.4539   55.7413 C   0  0  0  0  0
    3.0194    5.9810   57.7643 C   0  0  0  0  0
    2.7542    7.1298   58.7276 C   0  0  0  0  0
    3.6800    4.7963   58.4923 C   0  0  0  0  0
    3.9988    3.6850   57.4892 C   0  0  0  0  0
    4.6689    4.2389   56.2292 C   0  0  0  0  0
    6.0326    2.8863   55.1051 C   0  0  0  0  0
    8.0849    3.5413   54.3010 C   0  0  0  0  0
    8.6408    4.3099   55.4908 C   0  0  0  0  0
    8.5390    2.0694   54.3258 C   0  0  0  0  0
    7.4083    1.1499   53.8776 C   0  0  0  0  0
    6.1269    1.4146   54.6880 C   0  0  0  0  0
    3.8262    5.6338   52.2469 C   0  0  0  0  0
    4.0689    4.1310   52.2791 C   0  0  0  0  0
    5.1256    6.3240   51.8493 C   0  0  0  0  0
    1.4737    7.9972   50.3450 C   0  0  0  0  0
    0.1410    8.7051   50.5412 C   0  0  0  0  0
    2.5895    9.0282   50.3481 C   0  0  0  0  0
    3.0221    9.7319   49.0935 C   0  0  0  0  0
    2.0882    9.5572   47.8899 C   0  0  0  0  0
    0.8684   10.4613   48.1047 C   0  0  0  0  0
   -1.1446   13.8041   43.0141 O   0  0  0  0  0
    3.4046   11.1095   44.6214 O   0  0  0  0  0
    4.4487    5.9752   54.5777 O   0  0  0  0  0
    3.8687    6.4401   56.7416 O   0  0  0  0  0
    1.6365    6.8538   59.5160 O   0  0  0  0  0
    2.8246    4.2932   59.4760 O   0  0  0  0  0
    4.8273    2.7351   58.0880 O   0  0  0  0  0
    4.6915    3.2570   55.2323 O   0  0  0  0  0
    6.6848    3.7185   54.1748 O   0  0  0  0  0
    9.6422    1.9054   53.4910 O   0  0  0  0  0
    7.7936   -0.1913   53.9527 O   0  0  0  0  0
    6.0773    0.6163   55.8251 O   0  0  0  0  0
    3.1593    9.3257   51.3882 O   0  0  0  0  0
  1 44  1  0  0  0
  2 44  1  0  0  0
  2  3  1  0  0  0
  2  4  1  0  0  0
  2  5  1  0  0  0
  7  6  1  0  0  0
  7  8  1  0  0  0
  8  9  1  0  0  0
  8 45  1  0  0  0
  8 10  1  0  0  0
 10 11  1  0  0  0
 11 12  1  0  0  0
 12 13  1  0  0  0
 13 14  1  0  0  0
 13 15  1  0  0  0
 15 16  1  0  0  0
 16 17  1  0  0  0
 19 18  1  0  0  0
 19 20  1  0  0  0
 19 38  1  0  0  0
 20 21  1  0  0  0
 21 22  1  0  0  0
 22 46  1  0  0  0
 22 35  1  0  0  0
 23 46  1  0  0  0
 23 47  1  0  0  0
 24 47  1  0  0  0
 24 25  1  0  0  0
 24 26  1  0  0  0
 25 48  1  0  0  0
 26 49  1  0  0  0
 26 27  1  0  0  0
 27 50  1  0  0  0
 27 28  1  0  0  0
 28 51  1  0  0  0
 28 23  1  0  0  0
 29 51  1  0  0  0
 29 52  1  0  0  0
 30 52  1  0  0  0
 30 31  1  0  0  0
 30 32  1  0  0  0
 32 53  1  0  0  0
 32 33  1  0  0  0
 33 54  1  0  0  0
 33 34  1  0  0  0
 34 55  1  0  0  0
 34 29  1  0  0  0
 35 36  1  0  0  0
 35 37  1  0  0  0
 35 18  1  0  0  0
 38 39  1  0  0  0
 38 40  1  0  0  0
 38 15  1  0  0  0
 41 40  1  0  0  0
 41 42  1  0  0  0
 42 43  1  0  0  0
 42 10  1  0  0  0
 42 13  1  0  0  0
  5  6  2  0  0  0
 17 18  2  0  0  0
 40 56  2  0  0  0
M  END
> <rmsd>
0.59881115

$$$$
MolPort-047-116-553 MCULE-6491535722 PubChem-137699688


101107  0  0  0  0  0  0  0  0999 V2000
    8.2742    4.1444   55.1756 C   0  0  0  0  0
    6.9415    3.7191   54.5979 C   0  0  0  0  0
    4.8375    3.1538   55.0058 C   0  0  0  0  0
    4.4916    1.6925   55.2933 C   0  0  0  0  0
    4.0175    1.5014   56.7043 C   0  0  0  0  0
    3.7262    4.0817   55.4897 C   0  0  0  0  0
    2.5172    4.0067   54.5882 C   0  0  0  0  0
    3.7768    5.0127   52.6289 C   0  0  0  0  0
    4.0201    4.3246   51.3272 C   0  0  0  0  0
    3.1558    6.3058   50.0375 C   0  0  0  0  0
    3.8728    7.0569   48.9656 C   0  0  0  0  0
    1.7249    7.8778   47.7781 C   0  0  0  0  0
    1.1862    8.8614   48.7863 C   0  0  0  0  0
    0.1620   10.2178   47.0014 C   0  0  0  0  0
   -0.9027   11.2993   46.8538 C   0  0  0  0  0
   -2.2074   10.9462   47.5187 C   0  0  0  0  0
   -2.6039   13.3813   48.1093 C   0  0  0  0  0
   -3.7092   14.3208   48.6116 C   0  0  0  0  0
   -5.0739   13.8586   48.1359 C   0  0  0  0  0
   -5.2898   12.4662   48.6204 C   0  0  0  0  0
   -3.2302   16.6861   49.0759 C   0  0  0  0  0
   -2.9182   18.0462   48.5666 C   0  0  0  0  0
   -1.3895   13.5612   48.9695 C   0  0  0  0  0
   -0.3173   13.5019   51.2478 C   0  0  0  0  0
   -0.7608   13.5000   52.6737 C   0  0  0  0  0
   -0.8310   10.9747   52.7281 C   0  0  0  0  0
    0.5672   10.4673   52.9183 C   0  0  0  0  0
   -0.3060    8.3092   53.8765 C   0  0  0  0  0
   -0.0612    7.8963   55.3018 C   0  0  0  0  0
    1.1581    6.4905   56.9110 C   0  0  0  0  0
    2.6215    6.2051   57.2094 C   0  0  0  0  0
    2.8199    4.8076   57.7276 C   0  0  0  0  0
    2.6439    7.5538   59.4043 C   0  0  0  0  0
    3.3523    8.4795   60.3155 C   0  0  0  0  0
    4.6022    9.0585   59.9992 C   0  0  0  0  0
    5.2218    9.9049   60.9218 C   0  0  0  0  0
    4.6052   10.1771   62.1391 C   0  0  0  0  0
    5.2144   11.0190   63.0707 C   0  0  0  0  0
    4.5803   11.2885   64.2957 C   0  0  0  0  0
    3.3417   10.6992   64.5759 C   0  0  0  0  0
    2.7317    9.8545   63.6456 C   0  0  0  0  0
    3.3572    9.5922   62.4253 C   0  0  0  0  0
    6.4235   12.7500   65.0670 C   0  0  0  0  0
   -0.7224    7.1578   52.9386 C   0  0  0  0  0
   -1.8731    6.3671   53.5404 C   0  0  0  0  0
   -1.1933    7.7185   51.6065 C   0  0  0  0  0
    2.1447    8.5579   53.2533 C   0  0  0  0  0
   -1.4793   12.2929   54.7548 C   0  0  0  0  0
   -1.5590   10.7535   44.4330 C   0  0  0  0  0
   -1.7827   11.2222   43.0495 C   0  0  0  0  0
   -1.5134   12.5469   42.6373 C   0  0  0  0  0
   -1.7371   12.9155   41.3087 C   0  0  0  0  0
   -2.2180   11.9798   40.3976 C   0  0  0  0  0
   -2.4408   12.3319   39.0634 C   0  0  0  0  0
   -2.9258   11.3812   38.1565 C   0  0  0  0  0
   -3.1925   10.0735   38.5989 C   0  0  0  0  0
   -2.9704    9.7175   39.9322 C   0  0  0  0  0
   -2.4817   10.6661   40.8356 C   0  0  0  0  0
   -3.6126   10.8581   35.8376 C   0  0  0  0  0
    0.8499    6.6412   47.4808 C   0  0  0  0  0
    0.5153    5.8548   48.7320 C   0  0  0  0  0
    1.5396    5.7209   46.4914 C   0  0  0  0  0
    3.9554    8.1818   46.7419 C   0  0  0  0  0
    3.4669    4.0779   48.9045 C   0  0  0  0  0
    6.0383    3.4894   55.6398 O   0  0  0  0  0
    1.4385    3.5151   55.0174 O   0  0  0  0  0
    4.5501    3.1819   51.3325 O   0  0  0  0  0
    5.1281    7.1496   49.0384 O   0  0  0  0  0
    1.3970    8.6906   50.0144 O   0  0  0  0  0
    0.4194    9.9528   48.3732 O   0  0  0  0  0
   -2.6072    9.7517   47.5094 O   0  0  0  0  0
   -3.4574   15.6484   48.1731 O   0  0  0  0  0
   -3.2982   16.4837   50.3195 O   0  0  0  0  0
   -0.3040   13.9286   48.4437 O   0  0  0  0  0
   -0.9449   14.6051   53.2485 O   0  0  0  0  0
    1.5418   11.2278   52.6746 O   0  0  0  0  0
   -0.8645    8.2816   56.1940 O   0  0  0  0  0
    1.0362    7.0968   55.6300 O   0  0  0  0  0
    2.4930    4.5238   58.9130 O   0  0  0  0  0
    1.5377    7.0680   59.7698 O   0  0  0  0  0
    5.1586   12.1267   65.2527 O   0  0  0  0  0
    5.2410    8.8065   58.7895 O   0  0  0  0  0
    0.3493    6.2923   52.7095 O   0  0  0  0  0
   -1.7727    9.5438   44.7152 O   0  0  0  0  0
   -3.1313   11.7590   36.8275 O   0  0  0  0  0
   -1.0303   13.5052   43.5187 O   0  0  0  0  0
   -0.3483    7.0664   46.9081 O   0  0  0  0  0
    3.5254    2.4855   57.4008 N   0  0  0  0  0
    3.3842    3.7901   56.8881 N   0  0  0  0  0
    2.5770    4.4612   53.2359 N   0  0  0  0  0
    3.5955    4.9141   50.0893 N   0  0  0  0  0
    3.1765    7.6645   47.8565 N   0  0  0  0  0
   -3.0361   11.9677   48.1031 N   0  0  0  0  0
   -4.3204   11.6065   48.5593 N   0  0  0  0  0
   -1.4694   13.3335   50.3777 N   0  0  0  0  0
   -1.0090   12.2697   53.3758 N   0  0  0  0  0
    0.8024    9.1165   53.3456 N   0  0  0  0  0
    3.1834    7.2091   58.1165 N   0  0  0  0  0
    2.7728    8.7670   61.5171 N   0  0  0  0  0
   -1.1022   11.6529   45.4523 N   0  0  0  0  0
   -2.2552   10.3266   42.1332 N   0  0  0  0  0
  1  2  1  0  0  0
  2 65  1  0  0  0
  3 65  1  0  0  0
  3  4  1  0  0  0
  4  5  1  0  0  0
  6 89  1  0  0  0
  6  7  1  0  0  0
  6  3  1  0  0  0
  7 90  1  0  0  0
  8 90  1  0  0  0
  8  9  1  0  0  0
  9 91  1  0  0  0
 10 91  1  0  0  0
 10 11  1  0  0  0
 11 92  1  0  0  0
 12 92  1  0  0  0
 12 13  1  0  0  0
 12 60  1  0  0  0
 13 70  1  0  0  0
 14 70  1  0  0  0
 14 15  1  0  0  0
 15 16  1  0  0  0
 15100  1  0  0  0
 16 93  1  0  0  0
 17 93  1  0  0  0
 17 18  1  0  0  0
 17 23  1  0  0  0
 18 19  1  0  0  0
 18 72  1  0  0  0
 19 20  1  0  0  0
 21 72  1  0  0  0
 22 21  1  0  0  0
 23 95  1  0  0  0
 24 95  1  0  0  0
 24 25  1  0  0  0
 25 96  1  0  0  0
 26 96  1  0  0  0
 26 27  1  0  0  0
 27 97  1  0  0  0
 28 97  1  0  0  0
 28 29  1  0  0  0
 28 44  1  0  0  0
 29 78  1  0  0  0
 30 78  1  0  0  0
 30 31  1  0  0  0
 31 32  1  0  0  0
 31 98  1  0  0  0
 32 89  1  0  0  0
 33 34  1  0  0  0
 34 99  1  0  0  0
 35 36  1  0  0  0
 35 82  1  0  0  0
 37 38  1  0  0  0
 39 40  1  0  0  0
 39 81  1  0  0  0
 41 42  1  0  0  0
 42 37  1  0  0  0
 43 81  1  0  0  0
 44 45  1  0  0  0
 44 46  1  0  0  0
 44 83  1  0  0  0
 47 97  1  0  0  0
 48 96  1  0  0  0
 49 50  1  0  0  0
 50101  1  0  0  0
 51 52  1  0  0  0
 51 86  1  0  0  0
 53 54  1  0  0  0
 55 56  1  0  0  0
 55 85  1  0  0  0
 57 58  1  0  0  0
 58 53  1  0  0  0
 59 85  1  0  0  0
 60 61  1  0  0  0
 60 62  1  0  0  0
 60 87  1  0  0  0
 63 92  1  0  0  0
 64 91  1  0  0  0
 89 88  1  0  0  0
 93 94  1  0  0  0
 98 33  1  0  0  0
100 49  1  0  0  0
  5 88  2  0  0  0
  7 66  2  0  0  0
  9 67  2  0  0  0
 11 68  2  0  0  0
 13 69  2  0  0  0
 16 71  2  0  0  0
 20 94  2  0  0  0
 21 73  2  0  0  0
 23 74  2  0  0  0
 25 75  2  0  0  0
 27 76  2  0  0  0
 29 77  2  0  0  0
 32 79  2  0  0  0
 33 80  2  0  0  0
 34 35  2  0  0  0
 36 37  2  0  0  0
 38 39  2  0  0  0
 40 41  2  0  0  0
 42 99  2  0  0  0
 49 84  2  0  0  0
 50 51  2  0  0  0
 52 53  2  0  0  0
 54 55  2  0  0  0
 56 57  2  0  0  0
 58101  2  0  0  0
M  END
> <rmsd>
0.77348274

$$$$
MolPort-047-116-553 MCULE-6491535722 PubChem-137699688


101107  0  0  0  0  0  0  0  0999 V2000
   -2.3534   19.3269   54.6055 C   0  0  0  0  0
   -2.9091   18.2231   55.4795 C   0  0  0  0  0
   -4.2987   16.5036   55.6382 C   0  0  0  0  0
   -5.7470   16.7417   56.0664 C   0  0  0  0  0
   -6.7109   16.4406   54.9564 C   0  0  0  0  0
   -4.1508   15.1508   54.9468 C   0  0  0  0  0
   -4.2293   14.0156   55.9395 C   0  0  0  0  0
   -2.0726   14.7147   57.0787 C   0  0  0  0  0
   -1.9592   15.1351   58.5061 C   0  0  0  0  0
   -0.0573   13.5341   58.9001 C   0  0  0  0  0
    1.2967   13.8676   59.4318 C   0  0  0  0  0
    1.7502   11.5148   60.4097 C   0  0  0  0  0
    1.9075   10.6966   59.1528 C   0  0  0  0  0
    3.4666    9.1571   60.2814 C   0  0  0  0  0
    4.0432    7.7601   60.0787 C   0  0  0  0  0
    2.9924    6.7143   59.8117 C   0  0  0  0  0
    4.5774    5.4668   58.2730 C   0  0  0  0  0
    4.7285    4.1160   57.5594 C   0  0  0  0  0
    4.0850    3.0013   58.3629 C   0  0  0  0  0
    2.6495    3.3434   58.5687 C   0  0  0  0  0
    6.6223    3.6998   56.0495 C   0  0  0  0  0
    8.0765    3.4575   55.8672 C   0  0  0  0  0
    4.7623    6.5659   57.2705 C   0  0  0  0  0
    4.0578    7.6895   55.1294 C   0  0  0  0  0
    3.2527    7.3469   53.9192 C   0  0  0  0  0
    1.1367    8.2262   54.9843 C   0  0  0  0  0
    1.1281    9.7201   54.8545 C   0  0  0  0  0
   -1.3807    9.7613   55.0596 C   0  0  0  0  0
   -2.2792   10.2096   53.9399 C   0  0  0  0  0
   -3.7301   11.9401   52.9637 C   0  0  0  0  0
   -3.5831   13.4167   52.6322 C   0  0  0  0  0
   -4.8920   14.1463   52.7563 C   0  0  0  0  0
   -3.4677   13.0387   50.0864 C   0  0  0  0  0
   -2.8740   13.3931   48.7784 C   0  0  0  0  0
   -1.8159   14.3204   48.6436 C   0  0  0  0  0
   -1.3235   14.6226   47.3717 C   0  0  0  0  0
   -1.8706   14.0074   46.2499 C   0  0  0  0  0
   -1.3896   14.3022   44.9734 C   0  0  0  0  0
   -1.9487   13.6722   43.8483 C   0  0  0  0  0
   -2.9948   12.7575   44.0182 C   0  0  0  0  0
   -3.4789   12.4632   45.2949 C   0  0  0  0  0
   -2.9192   13.0827   46.4139 C   0  0  0  0  0
   -0.4529   14.8717   42.2824 C   0  0  0  0  0
   -2.0441    9.7603   56.4519 C   0  0  0  0  0
   -3.3700    9.0174   56.4123 C   0  0  0  0  0
   -1.1467    9.0517   57.4535 C   0  0  0  0  0
   -0.0303   11.9099   55.1857 C   0  0  0  0  0
    1.0670    7.2300   52.6891 C   0  0  0  0  0
    4.4639    7.2407   62.5571 C   0  0  0  0  0
    5.3964    6.7930   63.6123 C   0  0  0  0  0
    6.7626    6.5289   63.3647 C   0  0  0  0  0
    7.5883    6.1211   64.4148 C   0  0  0  0  0
    7.0666    5.9813   65.6975 C   0  0  0  0  0
    7.8816    5.5803   66.7598 C   0  0  0  0  0
    7.3442    5.4424   68.0458 C   0  0  0  0  0
    5.9793    5.7039   68.2587 C   0  0  0  0  0
    5.1612    6.1058   67.1991 C   0  0  0  0  0
    5.6998    6.2476   65.9166 C   0  0  0  0  0
    7.7265    4.8910   70.4274 C   0  0  0  0  0
    0.5646   11.1511   61.3291 C   0  0  0  0  0
   -0.7648   11.1937   60.6033 C   0  0  0  0  0
    0.5037   12.0865   62.5220 C   0  0  0  0  0
    3.2556   13.4192   60.9078 C   0  0  0  0  0
   -1.2565   14.5995   60.8419 C   0  0  0  0  0
   -3.8884   17.5213   54.7706 O   0  0  0  0  0
   -5.2067   13.2198   55.9133 O   0  0  0  0  0
   -2.7099   16.0526   58.9319 O   0  0  0  0  0
    1.7821   14.9997   59.1628 O   0  0  0  0  0
    1.2847   11.0139   58.1072 O   0  0  0  0  0
    2.7178    9.5595   59.1431 O   0  0  0  0  0
    1.8781    6.7889   60.3945 O   0  0  0  0  0
    6.1028    3.8335   57.3362 O   0  0  0  0  0
    5.8683    3.7713   55.0404 O   0  0  0  0  0
    5.6843    7.4097   57.4361 O   0  0  0  0  0
    3.8313    6.7914   52.9486 O   0  0  0  0  0
    2.2047   10.3280   54.6117 O   0  0  0  0  0
   -2.6521    9.3639   53.0823 O   0  0  0  0  0
   -2.6955   11.5403   53.8544 O   0  0  0  0  0
   -5.7775   14.0056   51.8682 O   0  0  0  0  0
   -4.4211   12.2121   50.1179 O   0  0  0  0  0
   -1.4932   13.9408   42.5547 O   0  0  0  0  0
   -1.2479   14.9489   49.7468 O   0  0  0  0  0
   -2.2706   11.0653   56.8944 O   0  0  0  0  0
    3.2705    7.5072   62.8628 O   0  0  0  0  0
    8.1842    5.0480   69.0899 O   0  0  0  0  0
    7.3170    6.6610   62.0983 O   0  0  0  0  0
    0.7501    9.8550   61.8091 O   0  0  0  0  0
   -6.3952   15.6506   53.9705 N   0  0  0  0  0
   -5.1447   15.0089   53.8746 N   0  0  0  0  0
   -3.2225   13.8374   56.9362 N   0  0  0  0  0
   -1.0646   14.4631   59.4051 N   0  0  0  0  0
    2.0518   12.9432   60.2438 N   0  0  0  0  0
    3.2709    5.5932   58.9531 N   0  0  0  0  0
    2.3155    4.5595   58.8726 N   0  0  0  0  0
    3.9087    6.6436   56.1275 N   0  0  0  0  0
    1.8397    7.6090   53.8649 N   0  0  0  0  0
   -0.0883   10.4621   55.0344 N   0  0  0  0  0
   -2.9751   13.6060   51.3127 N   0  0  0  0  0
   -3.3883   12.8058   47.6591 N   0  0  0  0  0
    4.8983    7.3769   61.1972 N   0  0  0  0  0
    4.9128    6.6457   64.8809 N   0  0  0  0  0
  1  2  1  0  0  0
  2 65  1  0  0  0
  3 65  1  0  0  0
  3  4  1  0  0  0
  4  5  1  0  0  0
  6 89  1  0  0  0
  6  7  1  0  0  0
  6  3  1  0  0  0
  7 90  1  0  0  0
  8 90  1  0  0  0
  8  9  1  0  0  0
  9 91  1  0  0  0
 10 91  1  0  0  0
 10 11  1  0  0  0
 11 92  1  0  0  0
 12 92  1  0  0  0
 12 13  1  0  0  0
 12 60  1  0  0  0
 13 70  1  0  0  0
 14 70  1  0  0  0
 14 15  1  0  0  0
 15 16  1  0  0  0
 15100  1  0  0  0
 16 93  1  0  0  0
 17 93  1  0  0  0
 17 18  1  0  0  0
 17 23  1  0  0  0
 18 19  1  0  0  0
 18 72  1  0  0  0
 19 20  1  0  0  0
 21 72  1  0  0  0
 22 21  1  0  0  0
 23 95  1  0  0  0
 24 95  1  0  0  0
 24 25  1  0  0  0
 25 96  1  0  0  0
 26 96  1  0  0  0
 26 27  1  0  0  0
 27 97  1  0  0  0
 28 97  1  0  0  0
 28 29  1  0  0  0
 28 44  1  0  0  0
 29 78  1  0  0  0
 30 78  1  0  0  0
 30 31  1  0  0  0
 31 32  1  0  0  0
 31 98  1  0  0  0
 32 89  1  0  0  0
 33 34  1  0  0  0
 34 99  1  0  0  0
 35 36  1  0  0  0
 35 82  1  0  0  0
 37 38  1  0  0  0
 39 40  1  0  0  0
 39 81  1  0  0  0
 41 42  1  0  0  0
 42 37  1  0  0  0
 43 81  1  0  0  0
 44 45  1  0  0  0
 44 46  1  0  0  0
 44 83  1  0  0  0
 47 97  1  0  0  0
 48 96  1  0  0  0
 49 50  1  0  0  0
 50101  1  0  0  0
 51 52  1  0  0  0
 51 86  1  0  0  0
 53 54  1  0  0  0
 55 56  1  0  0  0
 55 85  1  0  0  0
 57 58  1  0  0  0
 58 53  1  0  0  0
 59 85  1  0  0  0
 60 61  1  0  0  0
 60 62  1  0  0  0
 60 87  1  0  0  0
 63 92  1  0  0  0
 64 91  1  0  0  0
 89 88  1  0  0  0
 93 94  1  0  0  0
 98 33  1  0  0  0
100 49  1  0  0  0
  5 88  2  0  0  0
  7 66  2  0  0  0
  9 67  2  0  0  0
 11 68  2  0  0  0
 13 69  2  0  0  0
 16 71  2  0  0  0
 20 94  2  0  0  0
 21 73  2  0  0  0
 23 74  2  0  0  0
 25 75  2  0  0  0
 27 76  2  0  0  0
 29 77  2  0  0  0
 32 79  2  0  0  0
 33 80  2  0  0  0
 34 35  2  0  0  0
 36 37  2  0  0  0
 38 39  2  0  0  0
 40 41  2  0  0  0
 42 99  2  0  0  0
 49 84  2  0  0  0
 50 51  2  0  0  0
 52 53  2  0  0  0
 54 55  2  0  0  0
 56 57  2  0  0  0
 58101  2  0  0  0
M  END
> <rmsd>
0.670774341

$$$$
MolPort-047-116-553 MCULE-6491535722 PubChem-137699688


101107  0  0  0  0  0  0  0  0999 V2000
    8.2618    4.0703   55.2367 C   0  0  0  0  0
    6.9132    3.9039   54.5700 C   0  0  0  0  0
    4.7462    3.5214   54.8358 C   0  0  0  0  0
    4.2322    2.0816   54.8607 C   0  0  0  0  0
    3.6874    1.7098   56.2087 C   0  0  0  0  0
    3.7256    4.4745   55.4521 C   0  0  0  0  0
    2.5503    4.6917   54.5292 C   0  0  0  0  0
    3.9849    5.8645   52.7961 C   0  0  0  0  0
    4.2004    5.3834   51.3999 C   0  0  0  0  0
    3.6067    7.6398   50.4555 C   0  0  0  0  0
    4.4412    8.4748   49.5425 C   0  0  0  0  0
    2.4420    9.7245   48.4753 C   0  0  0  0  0
    1.9765   10.5781   49.6279 C   0  0  0  0  0
    1.1744   12.3249   48.0853 C   0  0  0  0  0
    0.2405   13.5301   48.1069 C   0  0  0  0  0
   -1.1191   13.2207   48.6770 C   0  0  0  0  0
   -1.2690   15.5498   49.6714 C   0  0  0  0  0
   -2.2832   16.5106   50.3078 C   0  0  0  0  0
   -3.6713   16.2942   49.7347 C   0  0  0  0  0
   -4.0562   14.8738   49.9679 C   0  0  0  0  0
   -1.5664   18.6928   51.1817 C   0  0  0  0  0
   -1.0888   20.0749   50.9203 C   0  0  0  0  0
   -0.0754   15.4418   50.5718 C   0  0  0  0  0
    0.8975   14.8758   52.8249 C   0  0  0  0  0
    0.4032   14.6831   54.2208 C   0  0  0  0  0
    0.0556   12.2098   53.8376 C   0  0  0  0  0
    1.3818   11.5214   53.9630 C   0  0  0  0  0
    0.2428    9.3460   54.5186 C   0  0  0  0  0
    0.3873    8.6727   55.8556 C   0  0  0  0  0
    1.3844    6.8850   57.2203 C   0  0  0  0  0
    2.7956    6.3882   57.4917 C   0  0  0  0  0
    2.8205    4.9097   57.7647 C   0  0  0  0  0
    2.8828    7.3343   59.8863 C   0  0  0  0  0
    3.6533    8.0055   60.9563 C   0  0  0  0  0
    4.9700    8.4833   60.7674 C   0  0  0  0  0
    5.6433    9.0850   61.8333 C   0  0  0  0  0
    5.0148    9.2158   63.0679 C   0  0  0  0  0
    5.6770    9.8128   64.1416 C   0  0  0  0  0
    5.0305    9.9416   65.3830 C   0  0  0  0  0
    3.7253    9.4585   65.5347 C   0  0  0  0  0
    3.0621    8.8587   64.4617 C   0  0  0  0  0
    3.7006    8.7371   63.2260 C   0  0  0  0  0
    6.9920   11.0315   66.4283 C   0  0  0  0  0
   -0.2614    8.4252   53.3888 C   0  0  0  0  0
   -1.5134    7.6806   53.8240 C   0  0  0  0  0
   -0.6178    9.2533   52.1649 C   0  0  0  0  0
    2.7276    9.4155   53.9925 C   0  0  0  0  0
   -0.5205   13.2311   56.0490 C   0  0  0  0  0
   -0.3801   13.4804   45.6167 C   0  0  0  0  0
   -0.4992   14.1990   44.3309 C   0  0  0  0  0
   -0.0715   15.5349   44.1583 C   0  0  0  0  0
   -0.2035   16.1462   42.9093 C   0  0  0  0  0
   -0.7492   15.4392   41.8418 C   0  0  0  0  0
   -0.8819   16.0351   40.5845 C   0  0  0  0  0
   -1.4335   15.3133   39.5185 C   0  0  0  0  0
   -1.8579   13.9887   39.7239 C   0  0  0  0  0
   -1.7262   13.3891   40.9796 C   0  0  0  0  0
   -1.1711   14.1091   42.0419 C   0  0  0  0  0
   -2.0857   15.2722   37.1321 C   0  0  0  0  0
    1.4490    8.6641   47.9533 C   0  0  0  0  0
    0.9837    7.7205   49.0438 C   0  0  0  0  0
    2.0706    7.8519   46.8328 C   0  0  0  0  0
    4.7297    9.9430   47.5480 C   0  0  0  0  0
    3.7149    5.6152   48.9612 C   0  0  0  0  0
    5.9519    3.6056   55.5401 O   0  0  0  0  0
    1.4090    4.2608   54.8474 O   0  0  0  0  0
    4.6018    4.2034   51.2177 O   0  0  0  0  0
    5.6955    8.4100   49.6532 O   0  0  0  0  0
    2.1211   10.1789   50.8119 O   0  0  0  0  0
    1.3496   11.8039   49.3953 O   0  0  0  0  0
   -1.6463   12.0985   48.4546 O   0  0  0  0  0
   -1.8715   17.8557   50.1095 O   0  0  0  0  0
   -1.7028   18.2919   52.3703 O   0  0  0  0  0
    1.0627   15.7666   50.1371 O   0  0  0  0  0
    0.3195   15.6886   54.9740 O   0  0  0  0  0
    2.4421   12.1959   53.8720 O   0  0  0  0  0
   -0.4021    8.9904   56.7861 O   0  0  0  0  0
    1.3776    7.7093   56.0610 O   0  0  0  0  0
    2.4204    4.4685   58.8773 O   0  0  0  0  0
    1.7172    6.9231   60.1423 O   0  0  0  0  0
    5.6605   10.5341   66.4806 O   0  0  0  0  0
    5.6224    8.3685   59.5443 O   0  0  0  0  0
    0.7172    7.4944   53.0335 O   0  0  0  0  0
   -0.7351   12.2728   45.6821 O   0  0  0  0  0
   -1.5464   15.9316   38.2711 O   0  0  0  0  0
    0.4800   16.2686   45.2004 O   0  0  0  0  0
    0.3267    9.3139   47.4406 O   0  0  0  0  0
    3.2799    2.6114   57.0553 N   0  0  0  0  0
    3.3015    3.9914   56.7728 N   0  0  0  0  0
    2.7101    5.3587   53.2769 N   0  0  0  0  0
    3.8895    6.2185   50.2747 N   0  0  0  0  0
    3.8576    9.3368   48.5423 N   0  0  0  0  0
   -1.8525   14.2163   49.4136 N   0  0  0  0  0
   -3.1848   13.9320   49.7771 N   0  0  0  0  0
   -0.2325   14.9895   51.9179 N   0  0  0  0  0
   -0.0041   13.3882   54.6955 N   0  0  0  0  0
    1.4519   10.0998   54.1552 N   0  0  0  0  0
    3.4294    7.1533   58.5685 N   0  0  0  0  0
    3.0639    8.1497   62.1786 N   0  0  0  0  0
    0.1336   14.1362   46.7840 N   0  0  0  0  0
   -1.0319   13.5312   43.2654 N   0  0  0  0  0
  1  2  1  0  0  0
  2 65  1  0  0  0
  3 65  1  0  0  0
  3  4  1  0  0  0
  4  5  1  0  0  0
  6 89  1  0  0  0
  6  7  1  0  0  0
  6  3  1  0  0  0
  7 90  1  0  0  0
  8 90  1  0  0  0
  8  9  1  0  0  0
  9 91  1  0  0  0
 10 91  1  0  0  0
 10 11  1  0  0  0
 11 92  1  0  0  0
 12 92  1  0  0  0
 12 13  1  0  0  0
 12 60  1  0  0  0
 13 70  1  0  0  0
 14 70  1  0  0  0
 14 15  1  0  0  0
 15 16  1  0  0  0
 15100  1  0  0  0
 16 93  1  0  0  0
 17 93  1  0  0  0
 17 18  1  0  0  0
 17 23  1  0  0  0
 18 19  1  0  0  0
 18 72  1  0  0  0
 19 20  1  0  0  0
 21 72  1  0  0  0
 22 21  1  0  0  0
 23 95  1  0  0  0
 24 95  1  0  0  0
 24 25  1  0  0  0
 25 96  1  0  0  0
 26 96  1  0  0  0
 26 27  1  0  0  0
 27 97  1  0  0  0
 28 97  1  0  0  0
 28 29  1  0  0  0
 28 44  1  0  0  0
 29 78  1  0  0  0
 30 78  1  0  0  0
 30 31  1  0  0  0
 31 32  1  0  0  0
 31 98  1  0  0  0
 32 89  1  0  0  0
 33 34  1  0  0  0
 34 99  1  0  0  0
 35 36  1  0  0  0
 35 82  1  0  0  0
 37 38  1  0  0  0
 39 40  1  0  0  0
 39 81  1  0  0  0
 41 42  1  0  0  0
 42 37  1  0  0  0
 43 81  1  0  0  0
 44 45  1  0  0  0
 44 46  1  0  0  0
 44 83  1  0  0  0
 47 97  1  0  0  0
 48 96  1  0  0  0
 49 50  1  0  0  0
 50101  1  0  0  0
 51 52  1  0  0  0
 51 86  1  0  0  0
 53 54  1  0  0  0
 55 56  1  0  0  0
 55 85  1  0  0  0
 57 58  1  0  0  0
 58 53  1  0  0  0
 59 85  1  0  0  0
 60 61  1  0  0  0
 60 62  1  0  0  0
 60 87  1  0  0  0
 63 92  1  0  0  0
 64 91  1  0  0  0
 89 88  1  0  0  0
 93 94  1  0  0  0
 98 33  1  0  0  0
100 49  1  0  0  0
  5 88  2  0  0  0
  7 66  2  0  0  0
  9 67  2  0  0  0
 11 68  2  0  0  0
 13 69  2  0  0  0
 16 71  2  0  0  0
 20 94  2  0  0  0
 21 73  2  0  0  0
 23 74  2  0  0  0
 25 75  2  0  0  0
 27 76  2  0  0  0
 29 77  2  0  0  0
 32 79  2  0  0  0
 33 80  2  0  0  0
 34 35  2  0  0  0
 36 37  2  0  0  0
 38 39  2  0  0  0
 40 41  2  0  0  0
 42 99  2  0  0  0
 49 84  2  0  0  0
 50 51  2  0  0  0
 52 53  2  0  0  0
 54 55  2  0  0  0
 56 57  2  0  0  0
 58101  2  0  0  0
M  END
> <rmsd>
0.711708903

$$$$
MolPort-039-140-946 PubChem-91872992


 54 56  0  0  0  0  0  0  0  0999 V2000
    2.1019    7.9103   52.4087 C   0  0  0  0  0
    0.5820    7.8915   52.4582 C   0  0  0  0  0
    0.0308    8.2307   51.0776 C   0  0  0  0  0
    0.1243    6.4881   52.8563 C   0  0  0  0  0
    1.6261    4.5026   55.0586 C   0  0  0  0  0
    2.0505    3.7734   56.3216 C   0  0  0  0  0
    2.1693    4.7616   57.4561 C   0  0  0  0  0
    3.3471    4.2490   58.2531 C   0  0  0  0  0
    3.8553    3.0848   57.4282 C   0  0  0  0  0
    6.1522    2.6589   58.3538 C   0  0  0  0  0
    7.4183    3.2962   56.7724 C   0  0  0  0  0
    6.1362    3.4894   56.3918 C   0  0  0  0  0
    6.8206    4.3767   54.3440 C   0  0  0  0  0
    8.4569    3.6445   55.9189 C   0  0  0  0  0
    0.0745    8.8995   53.5099 C   0  0  0  0  0
    0.4331   10.3274   53.1982 C   0  0  0  0  0
   -0.2743   12.5901   52.2998 C   0  0  0  0  0
    0.4491   12.5832   50.9547 C   0  0  0  0  0
   -0.4133   12.1258   49.8160 C   0  0  0  0  0
   -0.6133   11.5857   47.3662 C   0  0  0  0  0
    0.1944   11.7691   46.0988 C   0  0  0  0  0
   -1.5374   12.6990   44.3552 C   0  0  0  0  0
   -2.8686   13.0043   44.9684 C   0  0  0  0  0
   -2.8083   14.2470   45.7921 C   0  0  0  0  0
    0.5614    5.5202   51.9452 O   0  0  0  0  0
   -0.8942    4.3925   50.1041 O   0  0  0  0  0
   -2.2298    5.2038   52.1819 O   0  0  0  0  0
   -0.5841    2.9720   52.2667 O   0  0  0  0  0
   -1.0526    4.1312   54.6065 O   0  0  0  0  0
   -0.3002    1.6415   54.6590 O   0  0  0  0  0
    1.4998    3.6102   53.9891 O   0  0  0  0  0
    3.2993    3.1644   56.1397 O   0  0  0  0  0
    2.9665    3.7927   59.5183 O   0  0  0  0  0
    0.9832    4.7823   58.2011 O   0  0  0  0  0
    0.1400    6.8903   56.8678 O   0  0  0  0  0
    1.7602    7.3635   58.8717 O   0  0  0  0  0
   -0.8435    6.5545   59.2648 O   0  0  0  0  0
    1.6190   10.7219   53.3582 O   0  0  0  0  0
   -1.6170   11.7964   50.0029 O   0  0  0  0  0
   -1.0129   13.4954   43.5923 O   0  0  0  0  0
   -3.1195   15.3550   45.2821 O   0  0  0  0  0
   -2.3882   14.1881   47.1143 O   0  0  0  0  0
   -1.3064    8.7771   53.6890 O   0  0  0  0  0
   -0.7832    4.5303   51.6067 P   0  0  0  0  0
   -0.1388    3.1462   53.9039 P   0  0  0  0  0
    0.5056    6.4096   58.2560 P   0  0  0  0  0
    5.3149    3.0944   57.3764 N   0  0  0  0  0
    7.4677    2.7708   58.0107 N   0  0  0  0  0
    5.8047    4.0295   55.1930 N   0  0  0  0  0
    8.1304    4.1833   54.7069 N   0  0  0  0  0
    9.8180    3.4566   56.2883 N   0  0  0  0  0
   -0.5714   11.2327   52.7308 N   0  0  0  0  0
    0.1489   12.0700   48.5048 N   0  0  0  0  0
   -0.7415   11.1273   44.6831 S   0  0  0  0  0
  1  2  1  0  0  0
  2  3  1  0  0  0
  2  4  1  0  0  0
  2 15  1  0  0  0
  4 25  1  0  0  0
  5 31  1  0  0  0
  6  5  1  0  0  0
  6  7  1  0  0  0
  6 32  1  0  0  0
  7  8  1  0  0  0
  7 34  1  0  0  0
  8  9  1  0  0  0
  8 33  1  0  0  0
  9 32  1  0  0  0
  9 47  1  0  0  0
 11 48  1  0  0  0
 12 49  1  0  0  0
 12 47  1  0  0  0
 13 50  1  0  0  0
 14 51  1  0  0  0
 14 11  1  0  0  0
 15 16  1  0  0  0
 15 43  1  0  0  0
 16 52  1  0  0  0
 17 52  1  0  0  0
 17 18  1  0  0  0
 18 19  1  0  0  0
 19 53  1  0  0  0
 20 53  1  0  0  0
 20 21  1  0  0  0
 21 54  1  0  0  0
 22 54  1  0  0  0
 23 22  1  0  0  0
 23 24  1  0  0  0
 24 42  1  0  0  0
 44 25  1  0  0  0
 44 27  1  0  0  0
 44 28  1  0  0  0
 45 28  1  0  0  0
 45 30  1  0  0  0
 45 31  1  0  0  0
 46 34  1  0  0  0
 46 36  1  0  0  0
 46 37  1  0  0  0
 47 10  1  0  0  0
 10 48  2  0  0  0
 11 12  2  0  0  0
 13 49  2  0  0  0
 14 50  2  0  0  0
 16 38  2  0  0  0
 19 39  2  0  0  0
 22 40  2  0  0  0
 24 41  2  0  0  0
 44 26  2  0  0  0
 45 29  2  0  0  0
 46 35  2  0  0  0
M  CHG  1  42  -1
M  END
> <rmsd>
0.836737454

$$$$
MolPort-046-417-962 68152777 CHEMBL3666807 LN03254387 MCULE-5291543678 MCULE-7975311340 PubChem-67041274 ZINC000068152777


 44 49  0  0  0  0  0  0  0  0999 V2000
    5.4071    4.1854   52.4330 C   0  0  0  0  0
    4.9987    5.0424   53.6199 C   0  0  0  0  0
    3.6493    4.5863   54.1945 C   0  0  0  0  0
    3.2422    5.2998   55.4518 C   0  0  0  0  0
    2.9914    4.5455   56.6039 C   0  0  0  0  0
    2.6278    5.1836   57.7922 C   0  0  0  0  0
    2.5395    6.5817   57.8408 C   0  0  0  0  0
    2.7733    7.3385   56.6907 C   0  0  0  0  0
    3.1241    6.6971   55.4983 C   0  0  0  0  0
    2.2612    6.4717   60.2804 C   0  0  0  0  0
    1.7194    5.0550   60.0738 C   0  0  0  0  0
    2.1743    5.6260   52.4245 C   0  0  0  0  0
    2.8482    6.8680   52.4218 C   0  0  0  0  0
    2.3597    7.8701   51.5909 C   0  0  0  0  0
    1.2697    7.6871   50.7909 C   0  0  0  0  0
    0.5812    6.4744   50.7593 C   0  0  0  0  0
    1.0482    5.4399   51.5904 C   0  0  0  0  0
    2.8002    9.1578   51.3735 C   0  0  0  0  0
    0.0097    9.0978   49.1343 C   0  0  0  0  0
   -0.9618    8.1387   48.8101 C   0  0  0  0  0
   -1.9551    8.4233   47.8704 C   0  0  0  0  0
   -1.9876    9.6715   47.2448 C   0  0  0  0  0
   -1.0275   10.6436   47.5547 C   0  0  0  0  0
   -0.0345   10.3487   48.4996 C   0  0  0  0  0
   -1.0599   11.9598   46.8937 C   0  0  0  0  0
   -2.1372   13.5177   45.2121 C   0  0  0  0  0
   -3.4325   13.6097   44.4635 C   0  0  0  0  0
   -3.0122   13.7070   43.0154 C   0  0  0  0  0
   -1.0886   13.5565   44.1233 C   0  0  0  0  0
    6.4635    3.8643   55.3634 C   0  0  0  0  0
    7.5026    3.9924   56.4326 C   0  0  0  0  0
    8.8563    4.2521   55.8012 C   0  0  0  0  0
    2.2176    7.2011   59.0519 O   0  0  0  0  0
    2.3498    4.4441   58.9452 O   0  0  0  0  0
    2.5954    4.5518   53.2240 O   0  0  0  0  0
   -0.1958   12.8326   47.1825 O   0  0  0  0  0
   -1.6687   14.1060   42.9715 O   0  0  0  0  0
    5.9729    2.7344   55.0906 O   0  0  0  0  0
    1.0424    8.8219   50.1001 N   0  0  0  0  0
    1.9684    9.7098   50.4541 N   0  0  0  0  0
   -2.0709   12.2491   45.9224 N   0  0  0  0  0
    6.0452    5.0303   54.6408 N   0  0  0  0  0
    7.1790    5.0464   57.2675 F   0  0  0  0  0
    7.5691    2.8311   57.1826 F   0  0  0  0  0
  2  1  1  0  0  0
  2  3  1  0  0  0
  2 42  1  0  0  0
  3  4  1  0  0  0
  3 35  1  0  0  0
  5  6  1  0  0  0
  6 34  1  0  0  0
  7  8  1  0  0  0
  7 33  1  0  0  0
  9  4  1  0  0  0
 10 33  1  0  0  0
 10 11  1  0  0  0
 11 34  1  0  0  0
 12 35  1  0  0  0
 13 14  1  0  0  0
 15 16  1  0  0  0
 15 39  1  0  0  0
 17 12  1  0  0  0
 18 14  1  0  0  0
 20 21  1  0  0  0
 22 23  1  0  0  0
 23 25  1  0  0  0
 24 19  1  0  0  0
 25 41  1  0  0  0
 26 41  1  0  0  0
 26 27  1  0  0  0
 27 28  1  0  0  0
 28 37  1  0  0  0
 29 37  1  0  0  0
 29 26  1  0  0  0
 31 30  1  0  0  0
 31 32  1  0  0  0
 31 43  1  0  0  0
 31 44  1  0  0  0
 39 40  1  0  0  0
 39 19  1  0  0  0
 42 30  1  0  0  0
  4  5  2  0  0  0
  6  7  2  0  0  0
  8  9  2  0  0  0
 12 13  2  0  0  0
 14 15  2  0  0  0
 16 17  2  0  0  0
 18 40  2  0  0  0
 19 20  2  0  0  0
 21 22  2  0  0  0
 23 24  2  0  0  0
 25 36  2  0  0  0
 30 38  2  0  0  0
M  END
> <rmsd>
0.744616628

$$$$
MolPort-047-389-687 1857698229 MCULE-6630444583


 58 64  0  0  0  0  0  0  0  0999 V2000
    8.7354    3.2786   55.6458 C   0  0  0  0  0
    7.4694    4.0640   55.9114 C   0  0  0  0  0
    7.8230    5.4055   56.5212 C   0  0  0  0  0
    6.5684    3.2842   56.8521 C   0  0  0  0  0
    5.1264    3.7419   56.7078 C   0  0  0  0  0
    4.4268    2.9951   55.5796 C   0  0  0  0  0
    4.6267    4.7836   53.8588 C   0  0  0  0  0
    3.9771    5.7326   54.6621 C   0  0  0  0  0
    3.7745    7.0325   54.2024 C   0  0  0  0  0
    4.2138    7.3968   52.9277 C   0  0  0  0  0
    3.9360    8.7635   52.4058 C   0  0  0  0  0
    2.5138    8.8331   51.8741 C   0  0  0  0  0
    1.3317    9.8198   49.8553 C   0  0  0  0  0
    1.3928   10.6754   48.6677 C   0  0  0  0  0
    0.3630   10.8803   47.7685 C   0  0  0  0  0
    0.9525   11.7519   46.8645 C   0  0  0  0  0
   -1.0881   11.9822   45.4154 C   0  0  0  0  0
   -1.7414   13.1345   44.6536 C   0  0  0  0  0
    0.1961   14.1022   44.0435 C   0  0  0  0  0
    1.0895   13.0737   44.7384 C   0  0  0  0  0
    1.5746    9.3301   52.9369 C   0  0  0  0  0
    0.5631    7.0132   53.4100 C   0  0  0  0  0
    0.4320    6.5842   51.9567 C   0  0  0  0  0
   -0.5958    6.4721   54.1881 C   0  0  0  0  0
    0.8741    5.3991   55.9749 C   0  0  0  0  0
    1.1500    3.9042   56.1772 C   0  0  0  0  0
    0.1810    3.2368   57.1067 C   0  0  0  0  0
   -1.1553    3.0408   56.7305 C   0  0  0  0  0
   -2.0537    2.4326   57.6152 C   0  0  0  0  0
   -1.6172    2.0141   58.8756 C   0  0  0  0  0
   -0.2819    2.1993   59.2499 C   0  0  0  0  0
    0.6169    2.8057   58.3644 C   0  0  0  0  0
    0.8967    6.1468   57.2836 C   0  0  0  0  0
    0.2890    7.1708   59.0143 C   0  0  0  0  0
   -0.5553    7.8106   60.0615 C   0  0  0  0  0
   -1.3435    6.7527   60.8096 C   0  0  0  0  0
   -0.6586    6.4538   62.1275 C   0  0  0  0  0
   -1.8801    7.3492   62.0939 C   0  0  0  0  0
    3.3399    5.8414   57.8261 C   0  0  0  0  0
    3.5991    4.5479   58.5473 C   0  0  0  0  0
    4.8527    6.4548   52.1146 C   0  0  0  0  0
    5.0627    5.1532   52.5819 C   0  0  0  0  0
    4.8534    3.4766   54.3060 O   0  0  0  0  0
    0.2701    9.1961   50.1257 O   0  0  0  0  0
    2.4511   11.3649   48.3063 O   0  0  0  0  0
   -0.9561   13.4721   43.5375 O   0  0  0  0  0
    1.6308   10.5351   53.3021 O   0  0  0  0  0
   -1.7703    6.7827   53.8519 O   0  0  0  0  0
    3.1310    4.3671   59.7030 O   0  0  0  0  0
    2.4773    9.7013   50.7044 N   0  0  0  0  0
    2.2228   12.0309   47.2152 N   0  0  0  0  0
    0.3053   12.3195   45.7175 N   0  0  0  0  0
    0.5941    8.4683   53.5299 N   0  0  0  0  0
   -0.4028    5.5932   55.2985 N   0  0  0  0  0
   -0.2050    6.6731   57.8596 N   0  0  0  0  0
    1.6099    6.9528   59.1588 N   0  0  0  0  0
    1.9822    6.3147   58.0641 N   0  0  0  0  0
    4.4137    3.5300   57.9555 N   0  0  0  0  0
  1  2  1  0  0  0
  2  3  1  0  0  0
  2  4  1  0  0  0
  5  4  1  0  0  0
  5  6  1  0  0  0
  5 58  1  0  0  0
  6 43  1  0  0  0
  7 43  1  0  0  0
  8  9  1  0  0  0
 10 41  1  0  0  0
 11 10  1  0  0  0
 11 12  1  0  0  0
 12 50  1  0  0  0
 12 21  1  0  0  0
 13 14  1  0  0  0
 14 45  1  0  0  0
 15 16  1  0  0  0
 16 52  1  0  0  0
 17 52  1  0  0  0
 17 18  1  0  0  0
 18 46  1  0  0  0
 19 46  1  0  0  0
 19 20  1  0  0  0
 20 52  1  0  0  0
 21 53  1  0  0  0
 22 53  1  0  0  0
 22 23  1  0  0  0
 22 24  1  0  0  0
 24 54  1  0  0  0
 25 54  1  0  0  0
 25 26  1  0  0  0
 25 33  1  0  0  0
 26 27  1  0  0  0
 28 29  1  0  0  0
 30 31  1  0  0  0
 32 27  1  0  0  0
 34 55  1  0  0  0
 35 34  1  0  0  0
 35 36  1  0  0  0
 36 37  1  0  0  0
 37 38  1  0  0  0
 38 36  1  0  0  0
 39 57  1  0  0  0
 39 40  1  0  0  0
 40 58  1  0  0  0
 42  7  1  0  0  0
 50 13  1  0  0  0
 51 45  1  0  0  0
 57 56  1  0  0  0
 57 33  1  0  0  0
  7  8  2  0  0  0
  9 10  2  0  0  0
 13 44  2  0  0  0
 14 15  2  0  0  0
 16 51  2  0  0  0
 21 47  2  0  0  0
 24 48  2  0  0  0
 27 28  2  0  0  0
 29 30  2  0  0  0
 31 32  2  0  0  0
 33 55  2  0  0  0
 34 56  2  0  0  0
 40 49  2  0  0  0
 41 42  2  0  0  0
M  END
> <rmsd>
0.757855475

$$$$
MolPort-000-762-753 LN01793511 MCULE-6907440293 PubChem-4979400


 65 66  0  0  0  0  0  0  0  0999 V2000
   -2.0090   16.8405   45.8966 C   0  0  0  0  0
   -2.4545   15.4114   45.6669 C   0  0  0  0  0
   -1.9583   13.2617   45.9616 C   0  0  0  0  0
   -1.6633   11.9020   47.6814 C   0  0  0  0  0
   -2.1044   10.4475   47.5180 C   0  0  0  0  0
   -0.9465    9.5110   47.2031 C   0  0  0  0  0
   -0.6639    9.4975   45.7108 C   0  0  0  0  0
   -1.1206    8.1922   45.0787 C   0  0  0  0  0
   -0.0452    7.1183   45.1977 C   0  0  0  0  0
   -0.0200    6.5352   46.5997 C   0  0  0  0  0
    0.9879    5.4064   46.6623 C   0  0  0  0  0
    1.1036    4.9425   48.1024 C   0  0  0  0  0
    1.8026    3.5972   48.1888 C   0  0  0  0  0
    3.2837    3.6923   47.8516 C   0  0  0  0  0
    4.0638    4.4251   48.9321 C   0  0  0  0  0
    4.0780    3.6217   50.2206 C   0  0  0  0  0
    5.0181    4.2805   51.2113 C   0  0  0  0  0
    4.8809    3.6079   52.5615 C   0  0  0  0  0
    6.0043    4.0594   53.4727 C   0  0  0  0  0
    7.1714    3.0882   53.3637 C   0  0  0  0  0
    5.4967    4.2068   54.9099 C   0  0  0  0  0
    6.4619    5.0285   55.7722 C   0  0  0  0  0
    7.6308    4.2104   56.3080 C   0  0  0  0  0
    5.7233    5.7982   56.8682 C   0  0  0  0  0
    6.6510    6.7944   57.5454 C   0  0  0  0  0
    3.8065    4.8702   58.1292 C   0  0  0  0  0
    2.8420    5.7838   57.4477 C   0  0  0  0  0
    2.8379    7.1369   58.1330 C   0  0  0  0  0
    2.5274    8.2104   57.1022 C   0  0  0  0  0
    2.7214    9.6091   57.6759 C   0  0  0  0  0
    2.4433   10.6621   56.6098 C   0  0  0  0  0
    0.9551   10.8210   56.3401 C   0  0  0  0  0
    0.7440   12.1072   55.5609 C   0  0  0  0  0
   -0.7302   12.4509   55.3912 C   0  0  0  0  0
   -1.4070   11.5964   54.3248 C   0  0  0  0  0
   -0.7026   11.6409   52.9603 C   0  0  0  0  0
   -0.4275   13.0494   52.4105 C   0  0  0  0  0
   -1.6659   13.8362   52.1030 C   0  0  0  0  0
   -2.6217   13.3590   51.0552 C   0  0  0  0  0
   -2.6413   14.2042   49.7789 C   0  0  0  0  0
   -1.2799   14.5751   49.1299 C   0  0  0  0  0
   -0.2216   13.4502   49.1351 C   0  0  0  0  0
   -0.7444   12.0346   48.8907 C   0  0  0  0  0
   -0.6801   15.8897   49.5812 C   0  0  0  0  0
   -2.4026   12.7709   44.5763 C   0  0  0  0  0
   -2.6384   13.9214   43.5862 C   0  0  0  0  0
   -3.0306   15.2523   44.2500 C   0  0  0  0  0
   -1.3776   14.5364   45.8782 O   0  0  0  0  0
   -1.0433   12.3654   46.5165 O   0  0  0  0  0
    5.2092    2.9680   55.4930 O   0  0  0  0  0
    5.1718    4.9099   57.8399 O   0  0  0  0  0
    3.3799    4.0674   58.9985 O   0  0  0  0  0
    1.8664    7.1532   59.1377 O   0  0  0  0  0
    4.0411    9.7507   58.1122 O   0  0  0  0  0
    0.4925    9.7333   55.5986 O   0  0  0  0  0
   -2.7485   11.9682   54.2083 O   0  0  0  0  0
   -1.3939   10.8576   52.0285 O   0  0  0  0  0
   -1.8947   14.8653   52.7141 O   0  0  0  0  0
   -3.4936   15.3015   49.9097 O   0  0  0  0  0
    0.8079   13.7283   48.2274 O   0  0  0  0  0
    0.4282   16.3980   48.9161 O   0  0  0  0  0
   -1.1956   16.5682   50.5098 O   0  0  0  0  0
   -3.5624   12.0070   44.7050 O   0  0  0  0  0
   -4.4208   15.3718   44.2932 O   0  0  0  0  0
   -1.4384   14.1171   42.7917 N   0  0  0  0  0
  2  1  1  0  0  0
  2 48  1  0  0  0
  3 48  1  0  0  0
  3 49  1  0  0  0
  3 45  1  0  0  0
  4 49  1  0  0  0
  4  5  1  0  0  0
  5  6  1  0  0  0
  6  7  1  0  0  0
  7  8  1  0  0  0
  8  9  1  0  0  0
  9 10  1  0  0  0
 10 11  1  0  0  0
 11 12  1  0  0  0
 12 13  1  0  0  0
 13 14  1  0  0  0
 14 15  1  0  0  0
 15 16  1  0  0  0
 16 17  1  0  0  0
 17 18  1  0  0  0
 18 19  1  0  0  0
 19 20  1  0  0  0
 19 21  1  0  0  0
 21 50  1  0  0  0
 21 22  1  0  0  0
 22 23  1  0  0  0
 22 24  1  0  0  0
 24 25  1  0  0  0
 24 51  1  0  0  0
 26 51  1  0  0  0
 27 26  1  0  0  0
 27 28  1  0  0  0
 28 53  1  0  0  0
 28 29  1  0  0  0
 29 30  1  0  0  0
 30 54  1  0  0  0
 30 31  1  0  0  0
 31 32  1  0  0  0
 32 55  1  0  0  0
 32 33  1  0  0  0
 33 34  1  0  0  0
 34 35  1  0  0  0
 35 56  1  0  0  0
 35 36  1  0  0  0
 36 57  1  0  0  0
 36 37  1  0  0  0
 37 38  1  0  0  0
 39 38  1  0  0  0
 39 40  1  0  0  0
 40 59  1  0  0  0
 40 41  1  0  0  0
 41 42  1  0  0  0
 41 44  1  0  0  0
 42 60  1  0  0  0
 42 43  1  0  0  0
 43  4  1  0  0  0
 44 61  1  0  0  0
 45 63  1  0  0  0
 45 46  1  0  0  0
 46 65  1  0  0  0
 46 47  1  0  0  0
 47 64  1  0  0  0
 47  2  1  0  0  0
 26 52  2  0  0  0
 38 58  2  0  0  0
 44 62  2  0  0  0
M  END
> <rmsd>
0.675749004

$$$$
MolPort-000-773-852 LN01870508 MCULE-2341360604 PubChem-44662925


 58 65  0  0  0  0  0  0  0  0999 V2000
    0.2453   12.8686   43.8578 C   0  0  0  0  0
    1.2442   13.7369   43.1025 C   0  0  0  0  0
    1.4711   13.0709   41.7610 C   0  0  0  0  0
    1.2666   11.5868   41.9970 C   0  0  0  0  0
    2.5858   10.8798   42.1635 C   0  0  0  0  0
    3.0008    9.7154   41.3069 C   0  0  0  0  0
    4.5814   10.2422   42.8583 C   0  0  0  0  0
    3.5133   11.1946   43.0668 C   0  0  0  0  0
    0.2588   11.4596   43.1620 C   0  0  0  0  0
   -1.0965   11.1326   42.5284 C   0  0  0  0  0
    0.6161   10.3249   44.1568 C   0  0  0  0  0
   -0.2192   10.3654   45.4342 C   0  0  0  0  0
   -0.2892   11.7654   46.0839 C   0  0  0  0  0
   -0.0646   11.7818   47.6221 C   0  0  0  0  0
    1.4325   11.9932   47.9984 C   0  0  0  0  0
    1.8526   11.2452   49.2673 C   0  0  0  0  0
    1.5621    9.7385   49.1998 C   0  0  0  0  0
    0.3324    9.3847   48.3586 C   0  0  0  0  0
   -0.6670   10.5372   48.2986 C   0  0  0  0  0
    3.1292    8.2843   49.7765 C   0  0  0  0  0
    4.5082    8.7750   50.2131 C   0  0  0  0  0
    4.9393    7.9769   51.4335 C   0  0  0  0  0
    4.8546    6.4791   51.1286 C   0  0  0  0  0
    3.4881    6.1215   50.5112 C   0  0  0  0  0
    2.3436    6.0925   51.5228 C   0  0  0  0  0
    6.1637    4.9006   52.0102 C   0  0  0  0  0
    5.7291    3.4270   51.9712 C   0  0  0  0  0
    5.5739    2.8165   53.3688 C   0  0  0  0  0
    5.5987    3.9058   54.4377 C   0  0  0  0  0
    6.8276    4.8386   54.2836 C   0  0  0  0  0
    8.0345    4.3101   55.0472 C   0  0  0  0  0
    4.3248    4.0100   56.2379 C   0  0  0  0  0
    4.6712    4.7746   57.5098 C   0  0  0  0  0
    3.4307    5.5477   57.9403 C   0  0  0  0  0
    2.8221    7.2092   59.6623 C   0  0  0  0  0
    3.1125    7.8461   60.9742 C   0  0  0  0  0
    2.2264    4.5971   58.0643 C   0  0  0  0  0
    2.1078    3.7062   56.8193 C   0  0  0  0  0
    1.5016    4.4410   55.6287 C   0  0  0  0  0
    2.3972   11.7117   46.8485 C   0  0  0  0  0
    2.1036   12.6295   45.6590 C   0  0  0  0  0
    0.5932   12.8098   45.3645 C   0  0  0  0  0
   -0.8296   12.9723   48.1679 C   0  0  0  0  0
   -1.0086   13.4822   43.7416 O   0  0  0  0  0
    4.2747    9.3696   41.8310 O   0  0  0  0  0
    5.6459   10.1884   43.5348 O   0  0  0  0  0
    2.6767    9.0585   48.7065 O   0  0  0  0  0
    6.2508    8.3199   51.7766 O   0  0  0  0  0
    3.1883    6.9258   49.3855 O   0  0  0  0  0
    5.0755    5.7391   52.2948 O   0  0  0  0  0
    6.5930    1.8843   53.5934 O   0  0  0  0  0
    7.2175    5.1029   52.9379 O   0  0  0  0  0
    5.4655    3.3835   55.7282 O   0  0  0  0  0
    3.6755    6.2323   59.1623 O   0  0  0  0  0
    1.7958    7.5511   59.0134 O   0  0  0  0  0
    3.3228    3.0466   56.4956 O   0  0  0  0  0
    2.3558    3.7894   59.2004 O   0  0  0  0  0
    0.5284    9.0613   43.5718 O   0  0  0  0  0
  1 44  1  0  0  0
  1  2  1  0  0  0
  2  3  1  0  0  0
  3  4  1  0  0  0
  4  5  1  0  0  0
  4  9  1  0  0  0
  6  5  1  0  0  0
  6 45  1  0  0  0
  7 45  1  0  0  0
  7  8  1  0  0  0
  9 10  1  0  0  0
  9 11  1  0  0  0
  9  1  1  0  0  0
 11 12  1  0  0  0
 11 58  1  0  0  0
 12 13  1  0  0  0
 13 14  1  0  0  0
 14 15  1  0  0  0
 14 43  1  0  0  0
 15 16  1  0  0  0
 15 40  1  0  0  0
 16 17  1  0  0  0
 17 18  1  0  0  0
 17 47  1  0  0  0
 18 19  1  0  0  0
 19 14  1  0  0  0
 20 47  1  0  0  0
 20 21  1  0  0  0
 20 49  1  0  0  0
 21 22  1  0  0  0
 22 48  1  0  0  0
 22 23  1  0  0  0
 23 24  1  0  0  0
 23 50  1  0  0  0
 24 25  1  0  0  0
 24 49  1  0  0  0
 26 50  1  0  0  0
 26 27  1  0  0  0
 26 52  1  0  0  0
 27 28  1  0  0  0
 28 51  1  0  0  0
 28 29  1  0  0  0
 29 30  1  0  0  0
 29 53  1  0  0  0
 30 31  1  0  0  0
 30 52  1  0  0  0
 32 53  1  0  0  0
 32 33  1  0  0  0
 32 56  1  0  0  0
 33 34  1  0  0  0
 34 54  1  0  0  0
 34 37  1  0  0  0
 35 54  1  0  0  0
 36 35  1  0  0  0
 37 38  1  0  0  0
 37 57  1  0  0  0
 38 39  1  0  0  0
 38 56  1  0  0  0
 40 41  1  0  0  0
 41 42  1  0  0  0
 42 13  1  0  0  0
 42  1  1  0  0  0
  7 46  2  0  0  0
  8  5  2  0  0  0
 35 55  2  0  0  0
M  END
> <rmsd>
0.763033032

$$$$
MolPort-002-696-053 100048493 ChemDiv-8006-0610 MCULE-7974728718 PubChem-4194871 ZINC000100048493


 40 43  0  0  0  0  0  0  0  0999 V2000
   -0.6843   15.9047   44.5035 C   0  0  0  0  0
   -0.2469   15.1502   45.7125 C   0  0  0  0  0
    0.1114   15.8995   46.8379 C   0  0  0  0  0
    0.5354   15.2680   48.0071 C   0  0  0  0  0
    0.6051   13.8757   48.0628 C   0  0  0  0  0
    0.2504   13.1189   46.9443 C   0  0  0  0  0
   -0.1795   13.7327   45.7571 C   0  0  0  0  0
    0.1470   10.9597   51.0595 C   0  0  0  0  0
    1.2484   11.0579   51.9203 C   0  0  0  0  0
    1.3734   10.1873   53.0061 C   0  0  0  0  0
    0.4002    9.2042   53.2492 C   0  0  0  0  0
   -0.7010    9.1145   52.3822 C   0  0  0  0  0
   -0.8263    9.9857   51.2969 C   0  0  0  0  0
    0.5349    8.2752   54.3964 C   0  0  0  0  0
   -0.4362    7.2890   54.6346 C   0  0  0  0  0
   -0.3068    6.4078   55.7110 C   0  0  0  0  0
    0.7935    6.4976   56.5671 C   0  0  0  0  0
    3.7389    5.2428   57.8999 C   0  0  0  0  0
    4.9579    5.6173   58.4650 C   0  0  0  0  0
    6.1483    5.3778   57.7783 C   0  0  0  0  0
    6.1350    4.7598   56.5235 C   0  0  0  0  0
    7.4471    4.5653   55.8436 C   0  0  0  0  0
    4.9013    4.3679   55.9428 C   0  0  0  0  0
    3.7160    4.6210   56.6494 C   0  0  0  0  0
    1.7652    7.4814   56.3397 C   0  0  0  0  0
    1.6368    8.3623   55.2629 C   0  0  0  0  0
   -0.5309   12.8926   44.6388 N   0  0  0  0  0
   -0.0028   11.8337   49.9382 N   0  0  0  0  0
    0.9072    5.5734   57.6522 N   0  0  0  0  0
    4.8094    3.7268   54.6551 N   0  0  0  0  0
   -0.4146   11.5255   44.7485 O   0  0  0  0  0
   -0.9493   13.3703   43.5647 O   0  0  0  0  0
    1.2180   14.0671   50.6500 O   0  0  0  0  0
    2.4931   12.4654   49.2909 O   0  0  0  0  0
    2.0205    4.4487   59.7620 O   0  0  0  0  0
    2.3127    6.8651   59.4768 O   0  0  0  0  0
    3.5766    3.5359   54.0738 O   0  0  0  0  0
    5.8170    3.2668   54.0810 O   0  0  0  0  0
    1.1384   13.0711   49.5267 S   0  0  0  0  0
    2.2405    5.5460   58.7608 S   0  0  0  0  0
  1  2  1  0  0  0
  3  4  1  0  0  0
  5  6  1  0  0  0
  7 27  1  0  0  0
  7  2  1  0  0  0
  9 10  1  0  0  0
 11 12  1  0  0  0
 11 14  1  0  0  0
 13  8  1  0  0  0
 15 16  1  0  0  0
 17 29  1  0  0  0
 17 25  1  0  0  0
 19 20  1  0  0  0
 21 23  1  0  0  0
 22 21  1  0  0  0
 23 30  1  0  0  0
 24 18  1  0  0  0
 26 14  1  0  0  0
 27 31  1  0  0  0
 28  8  1  0  0  0
 30 37  1  0  0  0
 39  5  1  0  0  0
 39 28  1  0  0  0
 40 29  1  0  0  0
 40 18  1  0  0  0
  2  3  2  0  0  0
  4  5  2  0  0  0
  6  7  2  0  0  0
  8  9  2  0  0  0
 10 11  2  0  0  0
 12 13  2  0  0  0
 14 15  2  0  0  0
 16 17  2  0  0  0
 18 19  2  0  0  0
 20 21  2  0  0  0
 23 24  2  0  0  0
 25 26  2  0  0  0
 27 32  2  0  0  0
 30 38  2  0  0  0
 39 33  2  0  0  0
 39 34  2  0  0  0
 40 35  2  0  0  0
 40 36  2  0  0  0
M  CHG  4  27   1  31  -1  30   1  37  -1
M  END
> <rmsd>
0.787257671

$$$$
MolPort-027-720-888 MCULE-4198759306 PubChem-500376


 74 82  0  0  0  0  0  0  0  0999 V2000
   -0.9915    8.6076   46.6280 C   0  0  0  0  0
    0.5254    8.7055   46.5261 C   0  0  0  0  0
    1.1568    8.6585   47.8894 C   0  0  0  0  0
    2.0892    9.8500   47.9359 C   0  0  0  0  0
    3.4726    9.3241   48.2937 C   0  0  0  0  0
    3.2681    7.9297   48.8698 C   0  0  0  0  0
    1.9938    7.4013   48.1871 C   0  0  0  0  0
    1.1540    6.4596   49.0513 C   0  0  0  0  0
    2.0057    5.7188   50.0595 C   0  0  0  0  0
    2.5574    6.7290   51.0603 C   0  0  0  0  0
    3.1765    8.0063   50.4051 C   0  0  0  0  0
    4.5415    8.3929   51.0033 C   0  0  0  0  0
    4.4929    8.2969   52.5041 C   0  0  0  0  0
    3.9809    7.1962   53.0712 C   0  0  0  0  0
    3.3957    6.0918   52.1989 C   0  0  0  0  0
    2.5129    5.1588   53.0416 C   0  0  0  0  0
    1.5811    5.9378   53.9785 C   0  0  0  0  0
    2.3580    6.8641   54.9313 C   0  0  0  0  0
    3.8342    7.1329   54.5626 C   0  0  0  0  0
    2.9937    5.5557   56.7419 C   0  0  0  0  0
    2.5197    4.1351   56.3773 C   0  0  0  0  0
    1.3099    3.7547   57.2361 C   0  0  0  0  0
    1.5666    4.0389   58.7187 C   0  0  0  0  0
    2.0401    5.4889   58.8354 C   0  0  0  0  0
    2.2229    5.8729   60.2983 C   0  0  0  0  0
    1.9140    2.4031   60.1999 C   0  0  0  0  0
    1.9404    0.9170   59.8181 C   0  0  0  0  0
    3.3527    0.3264   59.8746 C   0  0  0  0  0
    4.3651    1.3224   60.4271 C   0  0  0  0  0
    3.7946    2.0839   61.6434 C   0  0  0  0  0
    3.8096    1.2243   62.9037 C   0  0  0  0  0
    4.1831    3.0742   55.3285 C   0  0  0  0  0
    4.4227    1.5808   55.0296 C   0  0  0  0  0
    5.4418    1.0010   56.0169 C   0  0  0  0  0
    6.5088    2.0259   56.4152 C   0  0  0  0  0
    6.5615    3.1768   55.3934 C   0  0  0  0  0
    7.6949    4.1359   55.7240 C   0  0  0  0  0
    4.5324    5.2592   51.6209 C   0  0  0  0  0
    2.4237    6.6435   46.9314 C   0  0  0  0  0
    1.0499    9.9993   45.8962 C   0  0  0  0  0
    1.5934    9.6168   44.5146 C   0  0  0  0  0
    2.2960   10.7787   43.8190 C   0  0  0  0  0
    1.2866   11.7034   43.1593 C   0  0  0  0  0
    1.7871   13.1276   43.2466 C   0  0  0  0  0
    1.0965   11.3035   41.7032 C   0  0  0  0  0
   -0.0303   12.8198   40.5065 C   0  0  0  0  0
   -1.1800   13.8106   40.7431 C   0  0  0  0  0
   -2.4783   13.2769   40.1384 C   0  0  0  0  0
   -2.2434   12.8334   38.6982 C   0  0  0  0  0
   -1.0390   11.8841   38.6502 C   0  0  0  0  0
   -0.7989   11.4201   37.2260 C   0  0  0  0  0
   -0.2347   11.6527   46.9150 C   0  0  0  0  0
    2.1066    6.5619   56.2945 O   0  0  0  0  0
    3.2473    5.6799   58.1302 O   0  0  0  0  0
    2.4095    7.2573   60.3996 O   0  0  0  0  0
    2.5493    3.1744   59.2185 O   0  0  0  0  0
    2.4900    2.6426   61.4748 O   0  0  0  0  0
    5.5656    0.6819   60.7453 O   0  0  0  0  0
    3.7469   -0.0622   58.5953 O   0  0  0  0  0
    1.1037    0.1929   60.6625 O   0  0  0  0  0
    0.9534    2.4180   57.0321 O   0  0  0  0  0
    3.5658    3.2275   56.5798 O   0  0  0  0  0
    5.3454    3.8985   55.2738 O   0  0  0  0  0
    6.2343    2.5191   57.6951 O   0  0  0  0  0
    6.0501   -0.1242   55.4639 O   0  0  0  0  0
    3.2208    0.8724   55.1130 O   0  0  0  0  0
    2.1266   10.4947   46.6780 O   0  0  0  0  0
   -0.1896   11.6465   41.2643 O   0  0  0  0  0
    0.1231   12.5335   39.1266 O   0  0  0  0  0
    0.1344   10.3793   37.2104 O   0  0  0  0  0
   -3.3863   12.1782   38.2277 O   0  0  0  0  0
   -3.4571   14.2730   40.1724 O   0  0  0  0  0
   -1.3511   14.0507   42.1127 O   0  0  0  0  0
    0.0310   10.9763   45.7104 O   0  0  0  0  0
  2  1  1  0  0  0
  3  2  1  0  0  0
  3  4  1  0  0  0
  4  5  1  0  0  0
  4 67  1  0  0  0
  6  5  1  0  0  0
  6  7  1  0  0  0
  7  8  1  0  0  0
  7 39  1  0  0  0
  7  3  1  0  0  0
  8  9  1  0  0  0
 10  9  1  0  0  0
 10 11  1  0  0  0
 11 12  1  0  0  0
 11  6  1  0  0  0
 12 13  1  0  0  0
 15 14  1  0  0  0
 15 16  1  0  0  0
 15 38  1  0  0  0
 15 10  1  0  0  0
 16 17  1  0  0  0
 17 18  1  0  0  0
 18 19  1  0  0  0
 18 53  1  0  0  0
 19 14  1  0  0  0
 20 53  1  0  0  0
 20 21  1  0  0  0
 20 54  1  0  0  0
 21 22  1  0  0  0
 21 62  1  0  0  0
 22 23  1  0  0  0
 22 61  1  0  0  0
 23 24  1  0  0  0
 23 56  1  0  0  0
 24 54  1  0  0  0
 24 25  1  0  0  0
 25 55  1  0  0  0
 26 56  1  0  0  0
 26 27  1  0  0  0
 26 57  1  0  0  0
 27 28  1  0  0  0
 27 60  1  0  0  0
 28 29  1  0  0  0
 28 59  1  0  0  0
 29 30  1  0  0  0
 29 58  1  0  0  0
 30 57  1  0  0  0
 30 31  1  0  0  0
 32 62  1  0  0  0
 32 33  1  0  0  0
 32 63  1  0  0  0
 33 34  1  0  0  0
 33 66  1  0  0  0
 34 35  1  0  0  0
 34 65  1  0  0  0
 35 36  1  0  0  0
 35 64  1  0  0  0
 36 63  1  0  0  0
 36 37  1  0  0  0
 40 67  1  0  0  0
 40 41  1  0  0  0
 40 74  1  0  0  0
 40  2  1  0  0  0
 41 42  1  0  0  0
 43 42  1  0  0  0
 43 44  1  0  0  0
 43 45  1  0  0  0
 45 68  1  0  0  0
 46 68  1  0  0  0
 46 47  1  0  0  0
 46 69  1  0  0  0
 47 48  1  0  0  0
 47 73  1  0  0  0
 48 49  1  0  0  0
 48 72  1  0  0  0
 49 50  1  0  0  0
 49 71  1  0  0  0
 50 69  1  0  0  0
 50 51  1  0  0  0
 51 70  1  0  0  0
 52 74  1  0  0  0
 13 14  2  0  0  0
M  END
> <rmsd>
0.691405296

$$$$
MolPort-005-944-165 MCULE-4262696836 PubChem-45359239


 75 78  0  0  0  0  0  0  0  0999 V2000
    9.0855    4.5182   56.0487 C   0  0  0  0  0
    7.6399    4.2020   55.8417 C   0  0  0  0  0
    6.7188    5.1343   55.5777 C   0  0  0  0  0
    7.0898    6.5807   55.4775 C   0  0  0  0  0
    5.3119    4.7451   55.3882 C   0  0  0  0  0
    2.9568    5.4097   55.1043 C   0  0  0  0  0
    2.0874    6.6401   55.3092 C   0  0  0  0  0
    2.2524    7.1982   56.7343 C   0  0  0  0  0
    2.1935    8.7330   56.7560 C   0  0  0  0  0
    1.2252    9.2910   55.7076 C   0  0  0  0  0
    1.2833    8.5169   54.3725 C   0  0  0  0  0
    0.9061    8.8170   52.1623 C   0  0  0  0  0
   -0.6452    8.8240   52.1327 C   0  0  0  0  0
   -1.2986    9.7083   51.0641 C   0  0  0  0  0
   -0.4443    9.9505   49.8232 C   0  0  0  0  0
    0.8711    9.1687   49.8361 C   0  0  0  0  0
    0.7721    7.6815   49.4747 C   0  0  0  0  0
    0.3009    6.2884   47.4901 C   0  0  0  0  0
   -0.2572    6.1841   46.1347 C   0  0  0  0  0
   -0.6642    7.2882   45.5067 C   0  0  0  0  0
   -1.2512    7.2792   44.1310 C   0  0  0  0  0
   -0.3695    4.8406   45.4844 C   0  0  0  0  0
   -1.2628   10.9514   48.0168 C   0  0  0  0  0
   -2.5992   11.0674   47.2794 C   0  0  0  0  0
   -2.6634   12.4212   46.5668 C   0  0  0  0  0
   -1.3669   12.7384   45.8138 C   0  0  0  0  0
   -0.1657   12.4303   46.7131 C   0  0  0  0  0
    1.1305   12.6982   45.9666 C   0  0  0  0  0
   -1.3306   14.5116   44.0969 C   0  0  0  0  0
   -1.3764   15.9462   43.7611 C   0  0  0  0  0
   -1.4419   16.8515   44.7409 C   0  0  0  0  0
   -1.4868   18.3243   44.4923 C   0  0  0  0  0
   -1.3579   16.3679   42.3259 C   0  0  0  0  0
   -3.9729   11.7121   44.5595 C   0  0  0  0  0
   -5.1476   11.9255   43.6951 C   0  0  0  0  0
   -6.0756   12.8122   44.0593 C   0  0  0  0  0
   -7.3005   13.0989   43.2534 C   0  0  0  0  0
   -5.2860   11.1456   42.4262 C   0  0  0  0  0
    1.8662    6.1840   58.7488 C   0  0  0  0  0
    2.7376    4.9362   58.5006 C   0  0  0  0  0
    4.0299    4.9727   59.3251 C   0  0  0  0  0
    3.8064    5.5498   60.7378 C   0  0  0  0  0
    2.7571    6.6901   60.7391 C   0  0  0  0  0
    3.0490    7.8211   61.7178 C   0  0  0  0  0
    6.0221    5.0391   61.7281 C   0  0  0  0  0
    7.2457    5.5261   62.3863 C   0  0  0  0  0
    8.1935    4.6582   62.7586 C   0  0  0  0  0
    9.4573    5.0736   63.4373 C   0  0  0  0  0
    7.4007    6.9932   62.6363 C   0  0  0  0  0
    4.9905    3.5233   55.3415 O   0  0  0  0  0
    4.3299    5.7327   55.2752 O   0  0  0  0  0
    2.3734    7.6217   54.3401 O   0  0  0  0  0
    1.3809    9.4412   53.3236 O   0  0  0  0  0
    1.5601    9.4001   51.0442 O   0  0  0  0  0
    0.3828    7.5384   48.1146 O   0  0  0  0  0
    0.7113    5.2497   48.0796 O   0  0  0  0  0
   -1.1814    9.7111   48.6580 O   0  0  0  0  0
   -0.2028   11.0789   47.1029 O   0  0  0  0  0
    2.2072   12.6087   46.8500 O   0  0  0  0  0
   -1.3635   14.1103   45.4377 O   0  0  0  0  0
   -1.2705   13.6490   43.1775 O   0  0  0  0  0
   -3.7963   12.5060   45.7020 O   0  0  0  0  0
   -3.1294   10.8194   44.2679 O   0  0  0  0  0
   -3.6485   10.9821   48.1928 O   0  0  0  0  0
   -1.6835   10.9296   51.6195 O   0  0  0  0  0
   -1.1142    7.5145   52.0072 O   0  0  0  0  0
   -0.0795    9.2762   56.2068 O   0  0  0  0  0
    3.4738    9.2412   56.5256 O   0  0  0  0  0
    1.2545    6.6652   57.5717 O   0  0  0  0  0
    2.5538    7.1979   59.4467 O   0  0  0  0  0
    2.9448    7.3556   63.0294 O   0  0  0  0  0
    5.0407    5.9527   61.3295 O   0  0  0  0  0
    5.8615    3.8036   61.5221 O   0  0  0  0  0
    4.9879    5.7168   58.6349 O   0  0  0  0  0
    2.0091    3.7894   58.8181 O   0  0  0  0  0
  1  2  1  0  0  0
  3  5  1  0  0  0
  4  3  1  0  0  0
  5 51  1  0  0  0
  6 51  1  0  0  0
  7  6  1  0  0  0
  7  8  1  0  0  0
  7 52  1  0  0  0
  8  9  1  0  0  0
  8 69  1  0  0  0
  9 10  1  0  0  0
  9 68  1  0  0  0
 10 11  1  0  0  0
 10 67  1  0  0  0
 11 52  1  0  0  0
 11 53  1  0  0  0
 12 53  1  0  0  0
 12 13  1  0  0  0
 12 54  1  0  0  0
 13 14  1  0  0  0
 13 66  1  0  0  0
 14 15  1  0  0  0
 14 65  1  0  0  0
 15 16  1  0  0  0
 15 57  1  0  0  0
 16 54  1  0  0  0
 16 17  1  0  0  0
 17 55  1  0  0  0
 18 55  1  0  0  0
 18 19  1  0  0  0
 21 20  1  0  0  0
 22 19  1  0  0  0
 23 57  1  0  0  0
 23 24  1  0  0  0
 23 58  1  0  0  0
 24 25  1  0  0  0
 24 64  1  0  0  0
 25 26  1  0  0  0
 25 62  1  0  0  0
 26 27  1  0  0  0
 26 60  1  0  0  0
 27 58  1  0  0  0
 27 28  1  0  0  0
 28 59  1  0  0  0
 29 60  1  0  0  0
 29 30  1  0  0  0
 32 31  1  0  0  0
 33 30  1  0  0  0
 34 62  1  0  0  0
 34 35  1  0  0  0
 37 36  1  0  0  0
 38 35  1  0  0  0
 39 69  1  0  0  0
 39 40  1  0  0  0
 39 70  1  0  0  0
 40 41  1  0  0  0
 40 75  1  0  0  0
 41 42  1  0  0  0
 41 74  1  0  0  0
 42 43  1  0  0  0
 42 72  1  0  0  0
 43 70  1  0  0  0
 43 44  1  0  0  0
 44 71  1  0  0  0
 45 72  1  0  0  0
 45 46  1  0  0  0
 48 47  1  0  0  0
 49 46  1  0  0  0
  2  3  2  0  0  0
  5 50  2  0  0  0
 18 56  2  0  0  0
 19 20  2  0  0  0
 29 61  2  0  0  0
 30 31  2  0  0  0
 34 63  2  0  0  0
 35 36  2  0  0  0
 45 73  2  0  0  0
 46 47  2  0  0  0
M  END
> <rmsd>
0.598081231

$$$$
MolPort-023-278-913 MolPort-044-193-775 MCULE-8148291383 NSC125066 NSC146842 NSC149500 PubChem-21864427 PubChem-45266312 PubChem-6332855 PubChem-73160668 PubChem-73161046 PubChem-73715268 PubChem-74219430 PubChem-76419042 PubChem-76419043 PubChem-76419173 PubChem-78298633 PubChem-78298634 PubChem-84068 PubChem-85389321 PubChem-91973949


 96101  0  0  0  0  0  0  0  0999 V2000
    8.7113    6.5546   55.1071 C   0  0  0  0  0
    8.0996    5.1916   55.0295 C   0  0  0  0  0
    6.7015    4.9906   55.0265 C   0  0  0  0  0
    7.0460    2.6411   54.9187 C   0  0  0  0  0
    8.9333    4.0634   54.9759 C   0  0  0  0  0
    6.4613    1.2639   54.8476 C   0  0  0  0  0
    6.4109    0.7349   53.4137 C   0  0  0  0  0
    7.7540    0.5379   52.7951 C   0  0  0  0  0
    6.3873    0.2133   56.9470 C   0  0  0  0  0
    7.3189    0.0121   58.1360 C   0  0  0  0  0
    6.5942   -0.6377   59.2711 C   0  0  0  0  0
    5.7187    6.0975   55.0763 C   0  0  0  0  0
    3.3040    6.8003   55.4185 C   0  0  0  0  0
    2.1545    6.3899   56.3409 C   0  0  0  0  0
    0.9539    7.2842   56.2500 C   0  0  0  0  0
    0.7369    8.3855   57.0325 C   0  0  0  0  0
   -0.9024    8.1145   55.6748 C   0  0  0  0  0
    1.4412    4.6174   57.5023 C   0  0  0  0  0
    2.6343    4.1028   58.3292 C   0  0  0  0  0
    3.0706    2.7218   57.8137 C   0  0  0  0  0
    1.8762    1.7745   57.6590 C   0  0  0  0  0
    0.8219    2.5019   56.8194 C   0  0  0  0  0
   -0.3597    1.5947   56.5260 C   0  0  0  0  0
    2.9393    5.0640   60.3229 C   0  0  0  0  0
    1.9228    5.9331   61.0633 C   0  0  0  0  0
    2.3636    6.2476   62.5023 C   0  0  0  0  0
    3.8536    6.5746   62.5661 C   0  0  0  0  0
    4.6864    5.5723   61.7534 C   0  0  0  0  0
    5.5616    6.2645   60.7085 C   0  0  0  0  0
    0.8443    7.1941   64.2013 C   0  0  0  0  0
    2.9124    7.1306   54.0070 C   0  0  0  0  0
    2.5214    6.3608   51.6474 C   0  0  0  0  0
    3.8562    5.9511   51.0654 C   0  0  0  0  0
    1.3898    5.6109   50.9328 C   0  0  0  0  0
    0.0662    6.3883   50.8536 C   0  0  0  0  0
   -0.4905    6.7399   52.2247 C   0  0  0  0  0
    0.1335    7.6022   49.9837 C   0  0  0  0  0
    0.7725   10.0590   49.8032 C   0  0  0  0  0
    1.4869   11.1026   50.6631 C   0  0  0  0  0
    0.7589   11.2651   51.9834 C   0  0  0  0  0
    1.1934   10.1827   48.3651 C   0  0  0  0  0
    2.3097    9.1927   46.3122 C   0  0  0  0  0
    1.1627    8.7157   45.4349 C   0  0  0  0  0
    0.2895    9.8521   45.0178 C   0  0  0  0  0
   -0.3321   11.7206   43.9426 C   0  0  0  0  0
   -1.5690   11.3949   44.5030 C   0  0  0  0  0
   -0.1513   12.8883   43.0737 C   0  0  0  0  0
   -0.7013   14.7413   41.9170 C   0  0  0  0  0
    0.6348   14.6444   41.5104 C   0  0  0  0  0
   -1.5969   15.7989   41.4345 C   0  0  0  0  0
   -3.8855   16.8701   41.4607 C   0  0  0  0  0
   -4.4507   16.5351   40.0927 C   0  0  0  0  0
   -5.5836   15.5308   40.2059 C   0  0  0  0  0
   -7.4838   17.6915   39.8762 C   0  0  0  0  0
   -8.3797   15.1300   40.8612 C   0  0  0  0  0
    6.2225    3.7172   54.9730 N   0  0  0  0  0
    8.3902    2.8217   54.9198 N   0  0  0  0  0
   10.3560    4.2027   54.9784 N   0  0  0  0  0
    8.6294   -0.4688   53.2840 N   0  0  0  0  0
    7.1764    0.3518   55.7314 N   0  0  0  0  0
    7.0368   -1.8955   59.7633 N   0  0  0  0  0
    7.8599    1.2924   58.5650 N   0  0  0  0  0
    4.3698    5.8045   55.4398 N   0  0  0  0  0
   -0.4408    8.9131   56.6642 N   0  0  0  0  0
   -0.0678    7.0991   55.4018 N   0  0  0  0  0
    0.1508    8.3348   64.7114 N   0  0  0  0  0
    2.5327    6.1022   53.0877 N   0  0  0  0  0
    0.9496    8.7159   50.3548 N   0  0  0  0  0
    1.9358    9.1382   47.7168 N   0  0  0  0  0
    0.6926   10.8695   44.2276 N   0  0  0  0  0
   -1.1280   13.7639   42.7658 N   0  0  0  0  0
   -2.9475   15.8462   41.8965 N   0  0  0  0  0
    8.0943    1.2376   51.8037 O   0  0  0  0  0
    5.6135   -0.0693   59.8170 O   0  0  0  0  0
    6.0492    7.2779   54.7703 O   0  0  0  0  0
    1.8180    5.0293   56.2076 O   0  0  0  0  0
    0.3797    3.6822   57.4647 O   0  0  0  0  0
   -1.2149    2.2240   55.6133 O   0  0  0  0  0
    1.3472    1.4342   58.9126 O   0  0  0  0  0
    4.0458    2.1590   58.6415 O   0  0  0  0  0
    2.2606    4.0214   59.6834 O   0  0  0  0  0
    3.9149    4.5252   61.1948 O   0  0  0  0  0
    6.5511    7.0301   61.3334 O   0  0  0  0  0
    4.2754    6.5280   63.8960 O   0  0  0  0  0
    1.5998    7.3215   63.0378 O   0  0  0  0  0
    0.7873    6.0951   64.8145 O   0  0  0  0  0
    1.7258    7.1106   60.3331 O   0  0  0  0  0
    2.9606    8.3357   53.6272 O   0  0  0  0  0
   -0.5554    7.6462   48.9282 O   0  0  0  0  0
    2.8106   10.7310   50.9057 O   0  0  0  0  0
    0.8897   11.2246   47.7276 O   0  0  0  0  0
   -1.1756   16.6674   40.6215 O   0  0  0  0  0
    1.1828    4.3586   51.5169 O   0  0  0  0  0
   -1.3401    9.9728   45.3719 S   0  0  0  0  0
    1.2643   13.2794   42.2656 S   0  0  0  0  0
   -7.0421   16.3005   40.8687 S   0  0  0  0  0
  1  2  1  0  0  0
  3 56  1  0  0  0
  3 12  1  0  0  0
  4 57  1  0  0  0
  5 58  1  0  0  0
  5  2  1  0  0  0
  6  4  1  0  0  0
  6  7  1  0  0  0
  6 60  1  0  0  0
  7  8  1  0  0  0
  8 59  1  0  0  0
  9 60  1  0  0  0
 10  9  1  0  0  0
 10 11  1  0  0  0
 10 62  1  0  0  0
 11 61  1  0  0  0
 12 63  1  0  0  0
 13 63  1  0  0  0
 13 14  1  0  0  0
 13 31  1  0  0  0
 14 15  1  0  0  0
 14 76  1  0  0  0
 16 64  1  0  0  0
 17 65  1  0  0  0
 18 76  1  0  0  0
 18 19  1  0  0  0
 18 77  1  0  0  0
 19 20  1  0  0  0
 19 81  1  0  0  0
 20 21  1  0  0  0
 20 80  1  0  0  0
 21 22  1  0  0  0
 21 79  1  0  0  0
 22 77  1  0  0  0
 22 23  1  0  0  0
 23 78  1  0  0  0
 24 81  1  0  0  0
 24 25  1  0  0  0
 24 82  1  0  0  0
 25 26  1  0  0  0
 25 87  1  0  0  0
 26 27  1  0  0  0
 26 85  1  0  0  0
 27 28  1  0  0  0
 27 84  1  0  0  0
 28 82  1  0  0  0
 28 29  1  0  0  0
 29 83  1  0  0  0
 30 85  1  0  0  0
 30 66  1  0  0  0
 31 67  1  0  0  0
 32 67  1  0  0  0
 32 33  1  0  0  0
 32 34  1  0  0  0
 34 35  1  0  0  0
 34 93  1  0  0  0
 35 36  1  0  0  0
 35 37  1  0  0  0
 37 68  1  0  0  0
 38 68  1  0  0  0
 38 39  1  0  0  0
 38 41  1  0  0  0
 39 40  1  0  0  0
 39 90  1  0  0  0
 41 69  1  0  0  0
 42 69  1  0  0  0
 42 43  1  0  0  0
 43 44  1  0  0  0
 44 94  1  0  0  0
 45 70  1  0  0  0
 45 47  1  0  0  0
 46 94  1  0  0  0
 47 95  1  0  0  0
 48 71  1  0  0  0
 48 50  1  0  0  0
 49 95  1  0  0  0
 50 72  1  0  0  0
 51 72  1  0  0  0
 51 52  1  0  0  0
 52 53  1  0  0  0
 53 96  1  0  0  0
 54 96  1  0  0  0
 55 96  1  0  0  0
 65 15  1  0  0  0
  2  3  2  0  0  0
  4 56  2  0  0  0
  5 57  2  0  0  0
  8 73  2  0  0  0
 11 74  2  0  0  0
 12 75  2  0  0  0
 15 16  2  0  0  0
 17 64  2  0  0  0
 30 86  2  0  0  0
 31 88  2  0  0  0
 37 89  2  0  0  0
 41 91  2  0  0  0
 44 70  2  0  0  0
 45 46  2  0  0  0
 47 71  2  0  0  0
 48 49  2  0  0  0
 50 92  2  0  0  0
M  CHG  1  96   1
M  END
> <rmsd>
0.662467599

$$$$
